89
title
Pd	0.002768	-0.047465	-0.173803
Cl	-0.222189	-0.141009	-3.587527
S	1.060386	2.190879	-2.187843
P	-1.175268	-1.665445	0.855189
P	-1.873149	1.260622	0.426209
F	5.110751	-0.628121	1.275553
F	5.917256	1.725443	2.204911
F	4.513911	3.985730	1.644177
F	2.259964	3.848353	0.210086
O	-0.310825	2.689006	-2.275392
O	2.189594	3.063543	-2.497458
O	4.509077	-3.884750	-2.021065
N	1.271510	1.453595	-0.763900
C	1.510245	-1.303912	-0.665680
C	1.238140	-2.526470	-1.300205
H	0.203913	-2.840801	-1.461237
C	2.240744	-3.376355	-1.742021
H	2.011773	-4.327315	-2.227080
C	3.580362	-3.014627	-1.564293
C	5.860791	-3.570092	-1.849247
H	6.142180	-2.646476	-2.386428
H	6.435810	-4.408121	-2.263972
H	6.123852	-3.448232	-0.783187
C	3.880555	-1.804182	-0.945438
H	4.917504	-1.501790	-0.818212
C	2.858321	-0.947867	-0.485390
C	3.255380	0.337287	0.133836
C	4.392878	0.445543	0.940771
C	4.833604	1.665549	1.444197
C	4.117058	2.821046	1.156209
C	2.955628	2.736492	0.396424
C	2.503557	1.512482	-0.115301
C	1.203056	0.892191	-3.453657
H	1.342834	1.428201	-4.401153
H	2.080859	0.279628	-3.209008
C	-2.375583	0.521554	2.033247
C	-2.019587	-0.824139	2.248183
C	-1.770076	3.039386	0.749022
C	-2.837828	3.908002	0.500142
H	-3.767193	3.523412	0.073157
C	-2.702775	5.265377	0.783165
H	-3.534063	5.945851	0.584273
C	-1.505966	5.756072	1.305132
H	-1.399364	6.823437	1.513076
C	-0.438931	4.890941	1.544555
H	0.510575	5.274134	1.923506
C	-0.569084	3.533937	1.266590
H	0.271847	2.855922	1.421175
C	-3.317532	1.015513	-0.656930
C	-3.170297	1.349999	-2.010906
H	-2.231855	1.790012	-2.361363
C	-4.217509	1.108364	-2.896085
H	-4.099257	1.370311	-3.950204
C	-5.402856	0.526268	-2.445699
H	-6.217589	0.330063	-3.147131
C	-5.546035	0.190020	-1.100743
H	-6.469148	-0.272948	-0.744559
C	-4.507771	0.436044	-0.204608
H	-4.620588	0.161126	0.846358
C	-2.553302	-2.369908	-0.106625
C	-2.568945	-2.165054	-1.490107
H	-1.754119	-1.608262	-1.959178
C	-3.636484	-2.632334	-2.252877
H	-3.648351	-2.454221	-3.330036
C	-4.691726	-3.302736	-1.638175
H	-5.532539	-3.662224	-2.236121
C	-4.685107	-3.501431	-0.256863
H	-5.518425	-4.016113	0.227193
C	-3.622450	-3.032035	0.510071
H	-3.635098	-3.165586	1.594741
C	-0.258468	-3.048971	1.592055
C	0.925926	-2.734185	2.272349
H	1.251103	-1.692537	2.341109
C	1.704963	-3.747257	2.818185
H	2.632559	-3.496344	3.337189
C	1.315288	-5.080667	2.677744
H	1.936079	-5.877110	3.094763
C	0.145048	-5.396964	1.992301
H	-0.154488	-6.440344	1.869922
C	-0.643810	-4.383859	1.446756
H	-1.549771	-4.637249	0.892349
C	-2.319842	-1.444548	3.461646
C	-3.037116	1.227365	3.039336
C	-3.339245	0.601183	4.248964
C	-2.979643	-0.729039	4.461053
H	-2.014755	-2.480346	3.633197
H	-3.202150	-1.210496	5.416129
H	-3.297194	2.277075	2.880553
H	-3.846745	1.162093	5.037189