85
title
Pd -0.122257 -0.493469 -0.176671
Cl -0.474126 -1.500253 -3.298496
S -1.417559 1.259143 -2.536001
P 0.505361 -2.090559 1.267311
P -2.226762 -0.592164 0.840100
F 3.401153 3.210561 0.705440
F 2.006129 5.381070 1.398323
F -0.621046 5.595062 0.733709
F -1.843963 3.610394 -0.591371
O -2.681986 0.563164 -2.303201
O -1.395560 2.571531 -3.175897
O 5.582886 0.404831 -2.469160
N -0.529702 1.242495 -1.194134
C 1.772415 -0.222674 -0.867345
C 2.543231 -1.254655 -1.418654
H 2.148533 -2.272230 -1.447018
C 3.807908 -1.030556 -1.947889
H 4.401435 -1.843745 -2.370970
C 4.344552 0.261163 -1.944038
C 6.159218 1.678655 -2.481901
H 7.156846 1.570160 -2.926888
H 6.265468 2.094180 -1.463679
H 5.574673 2.391463 -3.091062
C 3.589221 1.310754 -1.423542
H 3.978065 2.327429 -1.437804
C 2.307799 1.079721 -0.887911
C 1.532681 2.247846 -0.406102
C 2.124069 3.283815 0.320094
C 1.416456 4.422537 0.695127
C 0.074487 4.536095 0.346309
C -0.549920 3.505462 -0.346770
C 0.149546 2.345928 -0.703377
C -0.489684 0.221185 -3.704197
H -0.984789 0.353634 -4.674945
H 0.542060 0.594486 -3.727191
C -1.894547 -1.452804 2.453945
H -1.382678 -0.735017 3.114906
H -2.835405 -1.742441 2.945453
C -1.006594 -2.658247 2.177983
H -1.522314 -3.380324 1.523568
H -0.724798 -3.191163 3.098770
C -2.872158 1.040905 1.295886
C -2.083157 1.853125 2.123174
H -1.124158 1.487175 2.502476
C -2.496337 3.144495 2.434534
H -1.872808 3.776633 3.070822
C -3.690798 3.638769 1.911184
H -4.006217 4.658582 2.142452
C -4.463644 2.842482 1.069390
H -5.385566 3.237179 0.636568
C -4.056691 1.547700 0.754489
H -4.646059 0.938237 0.066860
C -3.600901 -1.564084 0.151617
C -3.462469 -2.128362 -1.120056
H -2.571134 -1.910521 -1.710635
C -4.480526 -2.925855 -1.641399
H -4.368603 -3.358338 -2.638223
C -5.639141 -3.155147 -0.902962
H -6.437356 -3.776759 -1.315964
C -5.787101 -2.582738 0.361830
H -6.699668 -2.752653 0.938068
C -4.771641 -1.790579 0.889031
H -4.897559 -1.335431 1.875472
C 1.246557 -3.608315 0.598578
C 0.499336 -4.318754 -0.352295
H -0.500370 -3.972770 -0.632779
C 1.040257 -5.442360 -0.968625
H 0.453344 -5.990531 -1.709005
C 2.335609 -5.855935 -0.653309
H 2.763304 -6.733248 -1.144066
C 3.087523 -5.140734 0.276270
H 4.107271 -5.452712 0.513057
C 2.548290 -4.017150 0.901520
H 3.148825 -3.446906 1.613052
C 1.607504 -1.479684 2.582341
C 1.897355 -2.262304 3.709694
H 1.486653 -3.271559 3.802561
C 2.721692 -1.762729 4.713956
H 2.945531 -2.377906 5.588606
C 3.262386 -0.480039 4.602637
H 3.910326 -0.091891 5.392193
C 2.977639 0.301999 3.485745
H 3.400953 1.303799 3.382796
C 2.151477 -0.194611 2.478920
H 1.935446 0.408231 1.595476

