77
title
Pd -0.335501 -0.655151 0.119836
C 0.319128 1.196894 0.176093
C -0.529432 2.209826 0.637090
H -1.560679 1.974882 0.903703
C -0.089784 3.516117 0.796030
H -0.756619 4.302554 1.154497
C 1.240639 3.837665 0.505365
C 2.107241 2.831819 0.082576
H 3.152481 3.061345 -0.110439
C 1.667501 1.502774 -0.083401
C 2.661380 0.469611 -0.452137
C 3.720123 0.731262 -1.326987
C 4.693054 -0.221291 -1.613684
C 4.607263 -1.483977 -1.036523
C 3.539153 -1.787921 -0.198696
C 2.572521 -0.825111 0.116861
N 1.459528 -1.186266 0.866907
S 1.566318 -1.652997 2.418321
O 0.504620 -2.621097 2.669851
O 2.952130 -1.923018 2.788823
C 1.167745 -0.183699 3.414534
Cl -0.549875 0.215603 3.470841
H 1.733441 0.663032 3.003859
H 1.510301 -0.428956 4.428226
F 3.424470 -3.027132 0.244504
F 5.509155 -2.404484 -1.331828
F 5.684928 0.064295 -2.444234
F 3.838833 1.910974 -1.937387
O 1.601903 5.126422 0.676210
C 2.924639 5.495072 0.402616
H 3.641941 4.976119 1.063042
H 2.994587 6.575029 0.584382
H 3.200197 5.289622 -0.646948
P -2.253638 -0.413369 -1.089501
C -3.640749 0.386024 -0.147026
C -2.118831 0.476250 -2.749678
C -2.541384 -2.280297 -1.271086
C -5.035370 0.505775 -0.768019
C -3.727446 -0.145489 1.288137
H -3.242533 1.414671 -0.069674
C -3.158435 0.024204 -3.777986
C -2.277508 1.978001 -2.479896
C -0.704527 0.255924 -3.300775
C -1.652680 -2.848701 -2.381137
C -2.029707 -2.875526 0.054466
C -3.993524 -2.686017 -1.502106
C -5.928189 1.393577 0.097938
H -4.981751 0.924301 -1.782618
H -5.493789 -0.490591 -0.864096
C -4.615198 0.749287 2.145576
H -2.719126 -0.226124 1.725941
H -4.153232 -1.163580 1.280703
H -4.190385 0.161737 -3.428611
H -3.037973 0.626339 -4.693583
H -3.035553 -1.028324 -4.065367
H -2.068538 2.523561 -3.414096
H -3.294047 2.250928 -2.163346
H -1.562643 2.333482 -1.723219
H 0.058108 0.591749 -2.583061
H -0.589517 0.843216 -4.226317
H -0.501078 -0.793149 -3.547566
H -1.968054 -2.539678 -3.385841
H -0.597321 -2.569007 -2.241802
H -1.708202 -3.948820 -2.343207
H -2.145523 -3.972098 0.035908
H -0.934232 -2.735755 0.212859
H -2.550377 -2.501744 0.943491
H -4.051230 -3.780899 -1.621070
H -4.634926 -2.416001 -0.651958
H -4.412814 -2.229825 -2.410066
C -6.004344 0.898869 1.537362
H -6.935466 1.451033 -0.344972
H -5.526348 2.423130 0.087418
H -4.678789 0.341686 3.166840
H -4.142084 1.743705 2.238149
H -6.621094 1.580737 2.144225
H -6.514798 -0.081129 1.557260

