97
title
Pd 0.068602 -0.612954 0.281683
C 1.202374 0.526968 1.416969
C 0.714586 0.986741 2.645861
H -0.307393 0.754086 2.944017
C 1.506450 1.718138 3.519290
H 1.120292 2.075703 4.475796
C 2.834397 1.998090 3.179660
C 3.344472 1.518717 1.975185
H 4.384773 1.700396 1.716020
C 2.546115 0.778544 1.079640
C 3.177250 0.245612 -0.149458
C 4.155579 0.956280 -0.851991
C 4.800271 0.424685 -1.964651
C 4.452064 -0.843736 -2.417018
C 3.444900 -1.552540 -1.771057
C 2.813961 -1.036960 -0.631906
N 1.731198 -1.702976 -0.077036
S 1.812676 -3.203299 0.530669
O 0.575673 -3.904320 0.192915
O 3.117926 -3.807355 0.285198
C 1.788208 -2.996404 2.337800
Cl 0.207222 -2.571575 3.000255
H 2.518481 -2.218677 2.596296
H 2.092285 -3.972005 2.738954
F 3.051569 -2.701018 -2.294638
F 5.035027 -1.341009 -3.494802
F 5.727304 1.126689 -2.600432
F 4.507478 2.191405 -0.491583
O 3.548121 2.717024 4.071972
C 4.881881 3.021080 3.775256
H 5.501192 2.111272 3.681099
H 5.261738 3.621795 4.611466
H 4.973104 3.606409 2.843063
P -1.875902 0.572224 0.204093
C -2.901499 -0.874605 -0.420678
C -1.697501 1.990871 -0.999987
C -2.649860 1.201939 1.748563
C -3.326017 -1.692186 0.818464
C -4.135425 -0.562761 -1.276556
C -1.934353 -1.761689 -1.245218
C -2.981487 2.757854 -1.356020
C -0.704006 2.975734 -0.344608
C -1.059890 1.452100 -2.295600
H -2.496077 0.383886 2.471668
H -1.995249 2.017650 2.094968
C -4.110367 1.640960 1.775866
C -4.011248 -2.992387 0.387769
H -4.020352 -1.109284 1.443008
H -2.439052 -1.921040 1.434610
C -4.824693 -1.869023 -1.693343
H -4.839111 0.076567 -0.719735
H -3.838970 -0.004246 -2.178431
C -2.625061 -3.059045 -1.680455
H -1.056849 -2.102845 -0.638650
H -1.551387 -1.226627 -2.125150
C -2.654129 3.904239 -2.323282
H -3.436589 3.178288 -0.447466
H -3.726026 2.087258 -1.809778
C -0.385368 4.125286 -1.303866
H -1.131563 3.383900 0.586479
H 0.219622 2.444749 -0.064074
C -0.734346 2.603734 -3.249587
H -1.749920 0.752671 -2.794582
H -0.142790 0.887870 -2.050108
H -4.750514 0.878425 1.303488
C -4.602135 1.892889 3.196102
H -4.247539 2.555630 1.179856
C -5.247805 -2.652554 -0.448087
C -3.040234 -3.840942 -0.434496
H -4.312628 -3.544075 1.293180
C -3.854042 -2.713332 -2.523939
H -5.713280 -1.622310 -2.297544
H -1.908330 -3.651049 -2.270409
C -1.673952 4.871530 -1.655665
C -2.026344 3.344624 -3.601420
H -3.589854 4.433020 -2.569202
C 0.249941 3.561669 -2.576186
H 0.321124 4.809985 -0.807190
H -0.281952 2.186014 -4.163741
H -3.949558 2.642818 3.676880
H -4.480875 0.968551 3.788276
C -6.048751 2.354766 3.252274
H -5.771288 -3.576733 -0.744382
H -5.961081 -2.059056 0.149651
H -3.518786 -4.790539 -0.725842
H -2.145781 -4.093190 0.157886
H -4.349798 -3.638862 -2.860918
H -3.552744 -2.163504 -3.431950
H -1.453949 5.714443 -2.332015
H -2.124786 5.301250 -0.744807
H -1.815706 4.163895 -4.308960
H -2.731075 2.660583 -4.104618
H 0.514758 4.380988 -3.265201
H 1.185769 3.032815 -2.329136
H -6.724499 1.607186 2.806624
H -6.378939 2.525141 4.287728
H -6.189783 3.297022 2.698936

