85
title
C -1.250979 0.686847 1.210887
C -1.826539 0.263819 2.436543
H -1.236040 -0.314227 3.149884
C -3.171383 0.497456 2.660377
H -3.658765 0.101495 3.554142
C -3.969017 1.200263 1.732768
C -3.372781 1.774689 0.613583
H -3.930216 2.416730 -0.067236
C -2.002061 1.571916 0.383274
C -1.135491 2.294466 -0.513911
C -1.442176 2.976075 -1.691520
C -0.435867 3.553611 -2.452890
C 0.895154 3.474664 -2.030844
C 1.234333 2.800755 -0.859715
C 0.222290 2.222559 -0.087414
N 0.390941 1.387721 1.028371
S 1.245642 1.787539 2.412538
O 1.239890 0.572883 3.217367
O 2.482552 2.479822 2.110376
C 0.106559 2.977936 3.153186
Cl 0.725899 3.577786 4.685402
H -0.853930 2.464451 3.299050
H 0.005175 3.804252 2.436439
F 2.511674 2.668065 -0.567765
F 1.848587 3.980065 -2.799836
F -0.721374 4.141584 -3.606368
F -2.693710 3.021020 -2.145049
O -5.291558 1.283553 2.033113
C -6.114132 2.008502 1.168471
H -6.102969 1.593234 0.143718
H -5.822379 3.073346 1.114842
H -7.134659 1.942177 1.567473
Pd 0.160401 -0.612587 0.455043
P 2.112439 -1.653619 -0.405094
P -1.002692 -2.288208 -0.570116
C 0.206335 -3.638349 -0.941202
H 0.408655 -4.149627 0.015177
H -0.217480 -4.378611 -1.638598
C 1.490287 -3.026455 -1.500805
H 1.295987 -2.575200 -2.486938
H 2.265715 -3.793317 -1.646547
C -2.459829 -3.064258 0.183023
C -2.562785 -4.421956 0.504517
H -1.756504 -5.115403 0.255041
C -3.702754 -4.900533 1.151017
H -3.778069 -5.962131 1.398589
C -4.740098 -4.030739 1.482958
H -5.627232 -4.409729 1.995873
C -4.640082 -2.674584 1.166908
H -5.437572 -1.978239 1.437621
C -3.506296 -2.193581 0.522378
H -3.423261 -1.128093 0.290395
C -1.604613 -1.762143 -2.217422
C -1.364219 -0.448691 -2.634657
H -0.820904 0.225988 -1.968200
C -1.827469 -0.000735 -3.871154
H -1.651450 1.034926 -4.172439
C -2.532233 -0.869819 -4.701061
H -2.901152 -0.522821 -5.669223
C -2.778836 -2.182247 -4.291279
H -3.339547 -2.860331 -4.939167
C -2.324242 -2.626391 -3.052506
H -2.544549 -3.646477 -2.724851
C 3.046320 -0.557134 -1.520211
C 2.377129 0.000051 -2.621758
H 1.358231 -0.313992 -2.863781
C 2.989872 0.978787 -3.397009
H 2.454378 1.412881 -4.244496
C 4.274056 1.421321 -3.079230
H 4.746163 2.204308 -3.676560
C 4.943103 0.872163 -1.988299
H 5.945934 1.219710 -1.729400
C 4.335329 -0.110969 -1.209241
H 4.860181 -0.521092 -0.343548
C 3.352469 -2.406552 0.694815
C 4.318126 -3.318741 0.247789
H 4.353409 -3.611332 -0.805191
C 5.250097 -3.843314 1.138560
H 6.001030 -4.554182 0.785333
C 5.229421 -3.454877 2.479687
H 5.963407 -3.866398 3.176886
C 4.278208 -2.540898 2.927608
H 4.262925 -2.228981 3.974304
C 3.337524 -2.017365 2.040492
H 2.593680 -1.293903 2.390572

