73
title
Pd -0.714025 0.406261 -0.777234
P -2.891321 0.263565 -0.038337
C -3.575593 2.050427 -0.017736
C -3.059632 2.751973 -1.284354
H -3.459394 2.336084 -2.214437
H -3.347996 3.815547 -1.244306
H -1.957922 2.711748 -1.341548
C -5.097521 2.174284 0.062331
H -5.602481 1.751736 -0.815946
H -5.368869 3.242375 0.107523
H -5.511368 1.693036 0.958201
C -2.951115 2.808964 1.158012
H -3.184034 3.880157 1.043272
H -3.347756 2.493114 2.131020
H -1.855094 2.706165 1.169883
C -3.961962 -0.801497 -1.210828
C -5.313013 -1.240640 -0.644968
H -5.937772 -0.393097 -0.333307
H -5.866242 -1.787962 -1.426394
H -5.207579 -1.921864 0.209681
C -4.190139 -0.035417 -2.518510
H -3.241209 0.319578 -2.948500
H -4.642371 -0.726707 -3.248155
H -4.874181 0.815704 -2.412264
C -3.133687 -2.033121 -1.603163
H -3.725810 -2.647532 -2.301642
H -2.212152 -1.725419 -2.117550
H -2.849722 -2.667404 -0.757321
C -2.972201 -0.463438 1.729732
C -4.292444 -0.225257 2.464577
H -4.474386 0.839983 2.660729
H -4.248592 -0.728846 3.444744
H -5.160245 -0.628129 1.927421
C -1.820500 0.128193 2.556053
H -0.856422 0.002758 2.044583
H -1.766106 -0.415108 3.513777
H -1.950839 1.189337 2.789424
C -2.698614 -1.969697 1.648260
H -1.766134 -2.186013 1.106763
H -2.580633 -2.354916 2.673994
H -3.518544 -2.532414 1.184170
C 0.567077 -1.066179 -0.182861
C 0.323863 -2.313811 -0.783293
H -0.085449 -2.368427 -1.791966
C 0.567449 -3.470765 -0.057787
H 0.329245 -4.450751 -0.476491
C 1.106078 -3.418291 1.241776
C 1.491229 -2.190049 1.777254
H 2.009616 -2.122978 2.732100
C 1.272619 -1.015265 1.039864
C 1.878747 0.279790 1.288281
C 2.417804 0.779826 2.470277
C 3.010135 2.038052 2.497741
C 3.053791 2.811518 1.336269
C 2.501495 2.342927 0.143671
C 1.938244 1.066137 0.107755
N 1.304689 0.477918 -0.997631
S 2.109719 0.134366 -2.429310
O 1.129689 -0.530954 -3.271221
O 2.848993 1.293399 -2.888049
C 3.323504 -1.085517 -1.863887
Cl 4.377234 -1.572565 -3.184350
H 2.773948 -1.952109 -1.475097
H 3.913107 -0.605665 -1.070802
F 2.483218 3.150764 -0.896762
F 3.579073 4.023329 1.385041
F 3.515106 2.517364 3.622091
F 2.365542 0.076101 3.598230
O 1.255464 -4.604194 1.870006
C 1.818016 -4.612774 3.150747
H 1.227511 -4.007907 3.862244
H 2.856730 -4.236570 3.147584
H 1.821414 -5.656918 3.488212

