97
title
Pd -0.177270 -0.848521 0.729196
C 1.545813 0.189080 1.047387
C 1.684208 0.633798 2.372603
H 1.254482 0.057647 3.191956
C 2.318162 1.845210 2.612971
H 2.376687 2.252381 3.624616
C 2.882013 2.593743 1.563548
C 2.884187 2.072186 0.269875
H 3.409787 2.569629 -0.543378
C 2.248792 0.848331 0.016623
C 2.364673 0.041807 -1.183077
C 2.704430 0.437773 -2.471440
C 2.806468 -0.501673 -3.491952
C 2.548390 -1.847257 -3.223681
C 2.177584 -2.264905 -1.945165
C 2.111636 -1.327206 -0.916214
N 1.696403 -1.578988 0.403498
S 2.505191 -2.598154 1.450315
O 1.734419 -2.576232 2.686542
O 2.855481 -3.836193 0.783661
C 4.044439 -1.739433 1.853175
Cl 5.112247 -1.549196 0.468417
H 4.521632 -2.371059 2.615216
H 3.780461 -0.757629 2.267059
F 1.851232 -3.530013 -1.768840
F 2.603099 -2.725261 -4.210852
F 3.118402 -0.127346 -4.722137
F 2.909665 1.722308 -2.759822
O 3.431280 3.779430 1.906208
C 3.997419 4.564816 0.895864
H 3.261316 4.812211 0.109789
H 4.863741 4.068521 0.423240
H 4.338339 5.493635 1.370445
C -3.141334 2.729823 -0.654425
H -3.770935 2.925109 0.230515
H -3.734020 2.105678 -1.341258
C -2.797250 4.051639 -1.353750
H -3.735354 4.562728 -1.627349
C -1.983067 3.756468 -2.617020
H -1.756926 4.695625 -3.149531
H -2.571917 3.130003 -3.308871
C -0.685817 3.042556 -2.230304
H -0.095667 2.815540 -3.133408
C 0.130158 3.936711 -1.297345
H 0.388948 4.881492 -1.805430
H 1.075054 3.438087 -1.033935
C -0.683452 4.222686 -0.034978
H -0.093505 4.848789 0.655082
C -1.021548 2.906792 0.671800
H -0.097216 2.387890 0.971749
H -1.580854 3.131771 1.593933
C -1.854948 1.994643 -0.253918
P -2.112174 0.388515 0.684215
C -2.857016 0.901932 2.302152
H -3.330579 1.886755 2.163139
H -3.678472 0.200241 2.513733
C -1.899975 0.914864 3.492524
H -0.992213 1.491306 3.246872
H -2.390434 1.457112 4.320241
C -1.500702 -0.472448 3.976761
H -2.412189 -1.070669 4.155540
H -0.953962 -0.996561 3.168703
C -0.655369 -0.449373 5.238882
H -0.331511 -1.461159 5.523277
H -1.210227 -0.018029 6.087833
H 0.252582 0.160493 5.104609
C -3.446932 -0.699063 -0.071339
C -3.339447 -2.034542 0.699502
H -2.305127 -2.422273 0.626502
H -3.533190 -1.876712 1.773829
C -4.319844 -3.066201 0.138299
H -4.220828 -4.000413 0.714789
C -3.984532 -3.325598 -1.331622
H -4.665988 -4.085126 -1.750131
H -2.961311 -3.727657 -1.420663
C -4.107788 -2.018144 -2.115909
H -3.860643 -2.195246 -3.175543
C -3.135792 -0.977473 -1.551330
H -3.228106 -0.048574 -2.135141
H -2.091650 -1.322361 -1.655554
C -5.537152 -1.482337 -2.000806
H -5.641539 -0.550897 -2.583205
H -6.250857 -2.207492 -2.426623
C -5.866851 -1.223019 -0.528649
H -6.893124 -0.829218 -0.441912
C -4.891644 -0.184634 0.042802
H -5.007582 0.764693 -0.499650
H -5.150535 0.016024 1.094674
C -5.747719 -2.529160 0.259048
H -6.466705 -3.271817 -0.125740
H -6.000597 -2.358197 1.319386
C -1.019144 1.726359 -1.520695
H -1.564833 1.069228 -2.212358
H -0.096306 1.193877 -1.242256
C -1.981629 4.940053 -0.411265
H -1.757599 5.903497 -0.899438
H -2.567159 5.169015 0.495777

