76
title
C -0.629223 1.170967 -0.556952
C -0.426905 2.326997 -1.330899
H 0.088005 2.264034 -2.290422
C -0.838528 3.553738 -0.828253
H -0.637646 4.476250 -1.377016
C -1.498835 3.651644 0.410583
C -1.823511 2.490797 1.112364
H -2.422441 2.522869 2.020834
C -1.434016 1.243989 0.602300
C -1.925197 -0.056153 1.020437
C -2.492967 -0.430512 2.233365
C -2.939737 -1.733358 2.429219
C -2.803845 -2.675539 1.408135
C -2.224265 -2.328739 0.187843
C -1.814354 -1.013106 -0.020039
N -1.161347 -0.525443 -1.164929
S -1.838855 -0.509384 -2.690340
O -0.815528 0.050547 -3.562804
O -2.482996 -1.776031 -2.973562
C -3.128047 0.756064 -2.616631
Cl -4.436863 0.342144 -1.516823
H -3.506272 0.827783 -3.645796
H -2.654691 1.696694 -2.306296
F -2.035136 -3.276694 -0.709283
F -3.185245 -3.923165 1.623382
F -3.467722 -2.095148 3.587313
F -2.600530 0.438726 3.235460
O -1.814877 4.901015 0.816898
C -2.502246 5.052635 2.025523
H -1.933543 4.636047 2.876407
H -3.496043 4.570866 1.998313
H -2.636009 6.130716 2.180907
Pd 0.815896 -0.257733 -0.768787
P 2.847106 0.188202 0.204725
C 3.689353 -1.372732 0.775012
C 4.055794 0.959725 -1.031643
C 2.694396 1.213639 1.792120
C 2.981072 -2.729653 0.540262
H 3.876255 -1.271551 1.854824
H 4.685668 -1.402642 0.305909
C 5.392180 1.389275 -0.432127
C 4.295537 -0.100893 -2.111678
C 3.368125 2.148597 -1.708958
C 2.195346 2.616998 1.444776
C 1.618610 0.508602 2.626235
C 3.973696 1.313871 2.623657
C 2.647312 -2.959835 -0.933054
C 3.953357 -3.822394 0.998456
C 1.698880 -2.831348 1.368605
H 5.869016 0.587434 0.152584
H 6.087107 1.662500 -1.243666
H 5.286896 2.271333 0.214278
H 4.882953 0.348974 -2.928521
H 4.861831 -0.966998 -1.741008
H 3.347345 -0.461894 -2.539716
H 3.153655 2.971609 -1.016315
H 2.418615 1.838159 -2.169384
H 4.023083 2.541329 -2.504148
H 1.329052 2.589970 0.768626
H 1.882334 3.127781 2.369898
H 2.981302 3.232081 0.984272
H 1.434066 1.093150 3.542378
H 0.669415 0.426940 2.077296
H 1.925529 -0.500584 2.935035
H 3.745735 1.849539 3.560072
H 4.374485 0.330098 2.908766
H 4.768932 1.871198 2.114317
H 3.543614 -2.925790 -1.569790
H 1.933849 -2.203753 -1.320823
H 2.167275 -3.940494 -1.070668
H 4.223547 -3.695474 2.058948
H 3.501818 -4.820132 0.884017
H 4.883116 -3.803745 0.407599
H 1.206512 -3.800979 1.197310
H 1.909049 -2.746497 2.446550
H 0.979560 -2.039708 1.095646

