19
Coordinates from ORCA-job gp_opt
  C   -1.74072026841930      0.06099580158111     -0.19955522519854
  C   -1.46115668579822     -1.22375462192767     -0.64569296185620
  C   -0.19301832071561     -1.82592159004237     -0.45333685394052
  C   -0.77366537509142      0.81989515792654      0.45800049765141
  C   0.47792423192409      0.24557252807959      0.64948338483439
  C   0.77281126877179     -1.03307608775654      0.21351888939504
  F   1.41144012882369      0.97052436383510      1.27776278465816
  H   1.77517862925661     -1.43091072105237      0.36597498031160
  F   -2.95242985097480      0.58207932669190     -0.39749394660493
  F   -1.05344090663259      2.05621322630219      0.88295590889670
  F   -2.43233501911771     -1.89059042903196     -1.26572248979684
  N   -0.05318419211320     -3.09740753701138     -0.93056082239585
  S   1.25724886000248     -3.94769888285743     -0.78161025491957
  O   2.52857444540850     -3.21395088699224     -0.66918793330392
  O   1.21717307340565     -5.10224289420400     -1.67109144920365
  C   1.09540440826079     -4.72184560297847      0.90824699015145
  F   0.94784644571323     -3.78387354907054      1.84922065556663
  F   2.17957001219987     -5.43583248317639      1.21399053476646
  F   0.04321911509587     -5.53199511831489      0.97646731098804
