24
Coordinates from ORCA-job gp_opt
  C   -0.83031824299611      2.14844343236466      0.58819752553669
  C   -0.94327558015634      0.76433218312758      0.56725853958974
  C   0.01176084809281     -0.04212032190771     -0.07126173475838
  C   0.23536633046565      2.78000283845740     -0.06642192948383
  C   1.17779459677358      1.99862725303618     -0.73118689294185
  C   1.07363420045647      0.60440417108883     -0.72280452666819
  H   1.82353402743127      0.00558059027215     -1.24790634927730
  H   -1.58127923883051      2.75179423833262      1.10996243476927
  H   2.00547939237843      2.47838612000357     -1.26484035065370
  H   -1.79293144389300      0.22161781769136      0.99646017956986
  H   0.32063574940039      3.87101394907846     -0.06553240810708
  C   -0.28021157636205     -1.53826691741864     -0.13854578895535
  C   0.92540690748101     -2.46202674970320     -0.28351201828513
  C   2.19756245474995     -2.22281081952344      0.25934518697503
  C   3.20275327471587     -3.19313213531795      0.20564985738348
  C   0.69987893199219     -3.71404888598459     -0.87660766450887
  C   1.70253270261371     -4.67148180960400     -0.95999319940276
  C   2.96805285738432     -4.41813400140735     -0.41482080914027
  H   4.18043477691290     -2.98775237687511      0.65498362129412
  H   3.75715416682278     -5.17469444883947     -0.46568468422284
  H   2.39972553721215     -1.26551187509956      0.74869914954216
  H   -0.32718401413861     -3.88589917263756     -1.21732866446052
  H   1.50296880747520     -5.63297623610320     -1.44560555503080
  N   -1.45100546598263     -1.98609684303125     -0.08003391876369
