16
Coordinates from ORCA-job gp_opt
  C   -0.71299805069937      2.12989667387374      0.47450527537877
  C   -0.92218757575244      0.76316810478411      0.42252046263927
  C   0.04278410552998     -0.18414134395221     -0.10068718364132
  C   0.49546621379297      2.68977599623896      0.00177908083131
  C   1.46010292262495      1.81430025362884     -0.51380040568670
  C   1.26091261228648      0.44437221924314     -0.57008692132864
  H   2.04460720740387     -0.20443739777764     -0.98229094223003
  C   -1.77724038845958      3.03646262621288      1.03794690828876
  H   2.40781473117295      2.22505044336604     -0.88767399366048
  H   -1.86232394749832      0.33751535474287      0.79166332705428
  N   -0.23248986933470     -1.47465211505133     -0.11485034224004
  H   0.66735887000259      3.76999009064581      0.03846476647900
  H   0.58210291639941     -1.94985776551625     -0.52222040016436
  H   -2.65993815772799      2.46563405231461      1.36501475800847
  H   -2.11247464412284      3.78002786769089      0.29278754211059
  H   -1.40421694561796      3.60874493955554      1.90620806816110
