23
Coordinates from ORCA-job gp_opt
  C   -3.94648724355040      5.10356438900443      2.18872488274100
  C   -4.60484113486251      3.95087748543725      1.73969888411452
  C   -3.89772312479258      2.86040415131333      1.25906858106071
  C   -2.46956287424608      2.83534142834929      1.19845171998932
  C   -2.54931304985216      5.11866836515702      2.12657384090399
  C   -1.82662209132299      4.02967128264375      1.65504427035219
  H   -4.41510971496008      1.96671647105155      0.89920982198755
  N   -1.87017373024412      1.76197942570880      0.65283368692777
  H   -4.50509850111307      5.96345282139385      2.56798853620051
  H   -0.73739252056332      4.09253214557361      1.60122370311504
  C   -0.59984056835068      1.38776470784560      0.88883836508445
  C   0.05566683753962      0.56074367521470     -0.07561035176331
  C   1.33862408383809      0.07139077215256      0.11013749808906
  C   0.16213291202634      1.65470992304121      2.07047638525336
  C   1.44465066700833      1.14965812709963      2.24672838618384
  C   2.06455937719925      0.35887372261007      1.27384613448507
  H   3.07688227590779     -0.02747841670342      1.41974294231557
  H   -0.51210285230147      0.32556814925331     -0.98013664422100
  H   -0.29389841137318      2.24835928142116      2.86604538797746
  H   1.97727633275164      1.37595692246765      3.17810105984172
  H   1.78897227979346     -0.55267044510699     -0.67049266388183
  H   -2.00399817903418      6.01267538129833      2.45167728049805
  H   -5.69982076949747      3.90624023377355      1.76599829274465
