26
Coordinates from ORCA-job gp_opt
  C   -3.67256575794790      5.25651821136098      2.38263191574577
  C   -4.39835221770965      4.11384348556179      2.00775706797517
  C   -3.78057675472385      2.98559095795733      1.49317146340683
  C   -2.36648628695212      2.89469314403674      1.31734006278084
  C   -2.28476786993979      5.19845335734899      2.19221088039304
  C   -1.64633200651585      4.07349185640300      1.68638734121888
  H   -4.36705570885259      2.11274937907591      1.19338552956812
  N   -1.85533284690966      1.78540089175590      0.75176476503615
  C   -4.34002281220893      6.45948615090882      2.98501762677401
  H   -0.56487879869773      4.09750117502536      1.53439762373927
  C   -0.58820747355775      1.36275197312003      0.90767653254229
  C   -0.04025222492919      0.47524499326764     -0.07029979634112
  C   1.23159559906360     -0.06341249676709      0.04097684678703
  C   0.26986360461474      1.63565564174043      2.02058688455357
  C   1.53975785057054      1.08139822936563      2.12250689922935
  C   2.05282839882792      0.23111022043212      1.13771183065094
  H   3.05624831616885     -0.19427760987373      1.22410330170996
  H   -0.68210550152231      0.23412608511744     -0.92218644403155
  H   -0.10086727952761      2.27549747438866      2.82456526838268
  H   2.14855718230746      1.31544305317349      3.00394501531504
  H   1.59702744175807     -0.73345601166512     -0.74591189871948
  H   -1.67856096568996      6.07764203943036      2.44539922397636
  H   -5.48946961716081      4.11540058206255      2.12299969442752
  H   -5.36940535501062      6.58457088675120      2.60946848391324
  H   -3.79045050295450      7.38684703785495      2.75241409616275
  H   -4.41066841250034      6.40237929216660      4.08866978480335
