36
Coordinates from ORCA-job gp_opt
  C   -1.66396420469435      1.95807053985207      0.08687062207387
  C   -1.63926730865786      0.57405852455728     -0.05951599689308
  C   -0.42806791810318     -0.18766522711857     -0.25212263721857
  C   0.77222020773632      0.62789254247523     -0.28118409891698
  C   0.76473721195297      2.00561134819063     -0.13536208254692
  C   -0.46123905672900      2.68209939011431      0.05124314859499
  H   -0.46474819507259      3.76609345699555      0.16662262965292
  H   -2.56232114941162     -0.01556904148026     -0.03508910889985
  H   1.69926710380871      0.06858264751045     -0.42756849523880
  C   2.05659819256050      2.83736422347958     -0.16559599572949
  C   1.97986281986765      3.86563592647173     -1.30333554193454
  H   1.86585782693578      3.35540684968541     -2.27257462537273
  H   2.89412630692540      4.48478703773593     -1.34204221051296
  H   1.11661169872848      4.53587494367112     -1.18035524772199
  C   3.30100002563887      1.97861373711703     -0.39141383834360
  C   2.22244463460386      3.57288714514210      1.17192762551000
  H   3.24323702890178      1.43549185212959     -1.34656959904610
  H   3.42561126488560      1.23286196145532      0.40799361747938
  H   4.20247832852688      2.61460692893701     -0.41138075364450
  H   1.36675576119644      4.23391987915040      1.37381316949101
  H   3.14140065889470      4.18637307083725      1.17780683375637
  H   2.28274587519631      2.84999752549853      2.00043661504972
  C   -3.01671354027450      2.66146159011159      0.28541157362368
  C   -3.92360926954986      2.37368111359020     -0.91919436138048
  H   -4.91097931608360      2.85465197661331     -0.79818005239396
  H   -3.46316733885262      2.75421773628238     -1.84456959696971
  H   -4.07754431815843      1.29296913081763     -1.04917688569815
  C   -2.87919241713185      4.17916050448291      0.41928360384913
  C   -3.68416592057273      2.13223656523262      1.56224796151164
  H   -2.42087977802909      4.62184279866436     -0.47837445854191
  H   -2.25673428427342      4.45232185669043      1.28512553295841
  H   -3.87243280259206      4.63929646346402      0.55617260327825
  H   -3.83488221034863      1.04463182571378      1.50675724425059
  H   -4.66518171944445      2.61294772323329      1.72833163003058
  H   -3.04701902305987      2.33250587894067      2.43803781022160
  O   -0.40531517532052     -1.43239042624488     -0.38337663432783
