19
Coordinates from ORCA-job gp_opt
  C   -3.25836646506397      5.32772760458324      2.16047872421112
  C   -4.17856173413804      4.26671626211138      2.20642928011520
  C   -3.86902215190087      2.99513861971002      1.75375902053656
  C   -2.56188810696220      2.68745633528529      1.20067702533118
  C   -1.99089395760002      5.05831032871504      1.63301534983874
  C   -1.62833295652954      3.79962225164001      1.16543976100542
  C   -0.26272803351467      3.54380091034112      0.60810703396313
  H   -5.18326299656419      4.44169301696274      2.61498495283453
  H   -3.52263416105676      6.32518941289749      2.52243811802864
  N   -2.32100833300472      1.45460028201830      0.78193608318572
  H   -1.36329819612880      1.41334638421050      0.42606118341238
  H   -1.24617722309171      5.86485395050583      1.58167582010853
  H   0.36453951089406      4.44962785374252      0.63338711271041
  H   -0.30506590922680      3.18788569957988     -0.44116418349971
  H   0.26742229617280      2.74653576452724      1.16717444219392
  C   -4.84853754168180      1.86726787619780      1.80510012552580
  H   -5.81391342845699      2.17607404069947      2.24102558760583
  H   -4.43799706360658      1.02035177610332      2.38420462063088
  H   -5.01817354853920      1.45003163016878      0.79590994226169
