5
Coordinates from ORCA-job gp_opt
  S   -7.78768246313562      1.79375801087381      0.00000238180750
  C   -7.78773269950686     -0.01772042865903     -0.00000058619940
  H   -8.80700792064020     -0.46955850994647      0.00297416588583
  H   -7.27555789408461     -0.46946149202476      0.88126673718904
  H   -7.28069902263270     -0.46946758024355     -0.88423269868297
