15
Coordinates from ORCA-job gp_opt
  C   -1.69586838042688      1.35710741846288     -0.00353100862721
  C   -1.98214256196896     -0.00290691759224      0.01539825749291
  C   -0.97312843243293     -0.97716909407509      0.02813701368776
  C   0.34874643963502     -0.50297785029813      0.01707199996701
  C   0.64437264602355      0.85324345032231     -0.00172263336924
  C   -0.36425453276736      1.86028520356573     -0.01098847547487
  S   0.00014219505489      3.53968554997949     -0.03510173225004
  H   -2.50742421885744      2.09049212565511     -0.01723253028630
  H   -3.03132859770696     -0.32588412575634      0.01877293503493
  H   1.17433700556800     -1.22665058411991      0.02159938363699
  H   1.68487147859285      1.19084155265253     -0.01380240348035
  C   -1.28490629036554     -2.44593253611629      0.07881872809014
  H   -2.33769329669494     -2.63961808678203     -0.18366778556417
  H   -1.12031415025002     -2.88370601668633      1.08250509226961
  H   -0.65926930340329     -3.02702008921170     -0.62160684112718
