76

H         -2.30377        2.50451       -0.20110
Rh        -0.76423        3.07548        0.17884
P         -0.43115        0.93490       -0.99252
C         -0.85793        0.16211       -2.56759
C         -1.01269       -1.20593       -2.81142
C         -1.47394       -1.68705       -4.03424
C         -1.83604       -0.78258       -5.02932
C         -1.74946        0.58918       -4.78472
C         -1.27780        1.05142       -3.55588
C          1.36724        0.91517       -1.00725
C          2.11470        2.08781       -0.99236
C          3.51400        2.01781       -0.92480
C          4.16580        0.78093       -0.83496
C          3.42066       -0.39221       -0.81740
C          2.03722       -0.30660       -0.90275
C         -1.03300       -0.38515        0.13069
C         -0.50393       -1.84343        0.12086
C          0.33780       -2.41970       -0.86140
C          0.63584       -3.78182       -0.93164
C          0.07332       -4.63910       -0.00358
C         -0.73378       -4.10127        0.99919
C         -1.00998       -2.69960        1.09884
C         -1.96233       -2.19931        2.14291
C         -2.86462       -3.23637        2.47381
C         -3.90126       -3.07127        3.35560
C         -4.07077       -1.82489        3.93606
C         -3.17595       -0.75884        3.67783
C         -2.08214       -0.85632        2.78611
C         -1.01387        0.38801        2.76512
P         -0.99833        2.35251        2.40978
C          0.87654        2.52345        2.34730
C          1.42545        3.80950        2.09097
C          2.77627        4.11718        1.98888
C          3.68640        3.08802        2.12834
C          3.21483        1.78605        2.36018
C          1.82882        1.50203        2.46633
C         -1.52659        4.21679        2.60517
C         -2.79457        4.62672        3.06935
C         -3.13595        5.99853        3.24295
C         -2.21944        7.02129        2.97097
C         -0.96367        6.67428        2.50327
C         -0.65406        5.31808        2.32527
C         -0.56278        4.01917       -1.60522
O         -0.45425        4.59092       -2.57231
H         -0.77851       -1.87810       -2.06419
H         -1.54661       -2.70286       -4.20117
H         -2.16733       -1.12526       -5.94465
H         -2.03462        1.26184       -5.51358
H         -1.23908        2.06683       -3.37567
H          1.64240        3.00459       -1.03082
H          4.06968        2.88727       -0.94146
H          5.19566        0.74102       -0.78200
H          3.88682       -1.30986       -0.74232
H          1.48356       -1.17739       -0.88848
H         -2.08582       -0.45788       -0.04591
H         -0.65546       -0.03919        1.07019
H          0.75627       -1.79489       -1.56817
H          1.26602       -4.14331       -1.66459
H          0.24696       -5.65524       -0.05182
H         -1.14826       -4.73881        1.69688
H         -2.73699       -4.15990        2.03127
H         -4.53679       -3.85266        3.58042
H         -4.86859       -1.66986        4.57204
H         -3.32978        0.13722        4.16613
H         -0.28438        0.03559        2.06616
H         -1.06337        0.52282        3.82544
H          0.75806        4.58720        1.96936
H          3.08985        5.08475        1.81425
H          4.69951        3.27339        2.06304
H          3.89434        1.01525        2.45591
H          1.51827        0.53210        2.63312
H         -3.49985        3.90667        3.29100
H         -4.08095        6.24433        3.57700
H         -2.47412        8.01083        3.11579
H         -0.26527        7.40311        2.28864
H          0.28491        5.09366        1.96057
