78
Coordinates from ORCA-job gp_opt
  P   -0.35298907604338     -1.67948149463447      0.08333272519111
  C   -2.23886328848005     -1.74513510308866      0.45942199617051
  C   -0.09398651504629     -2.21848113242880     -1.74732064743472
  C   0.51229844436757     -2.96452531754091      1.21163974894007
  C   0.02028792967480     -2.77474189254360      2.65048169892332
  H   -1.00158239529010     -3.14235708398241      2.80594570771045
  H   0.07102486958383     -1.72051219474570      2.96153351615787
  H   0.67837748986977     -3.35141532653485      3.32090445381836
  C   0.30926787635370     -4.42796493666396      0.81132313513147
  H   0.77488054659259     -4.67073231007658     -0.15222916103862
  H   -0.74823184289437     -4.71545626973696      0.76187587173153
  H   0.78931285842056     -5.06906865878518      1.56983540620089
  C   2.01239773386046     -2.65269988003838      1.25007730978117
  H   2.18972456457081     -1.64751705268726      1.65129674675469
  H   2.50723938867968     -2.72310857678807      0.27561743113130
  H   2.50230291578100     -3.37610213963045      1.92283648484710
  C   -0.97401241866642     -3.38174377173951     -2.21118162495995
  H   -2.04062490012574     -3.12512829484375     -2.22039091315362
  H   -0.84185736687832     -4.28514898986561     -1.60216667459260
  H   -0.69754869349665     -3.64165444155137     -3.24683229765809
  C   -0.35753242889182     -0.99587091585480     -2.63943962115905
  H   0.30868858798634     -0.16266059254528     -2.36920032765016
  H   -1.38657908350308     -0.62554547038204     -2.58382048004577
  H   -0.15799393405212     -1.27701065906481     -3.68719364059614
  C   1.37048161914395     -2.60520820416119     -1.98755613150204
  H   1.50514775749339     -2.77117101205307     -3.06892291176037
  H   1.66415461364614     -3.53234685868944     -1.48042687441036
  H   2.06460804165297     -1.80586573204290     -1.69536919987286
  C   -2.49862449495427     -0.99157165161377      1.77205519803317
  H   -2.04096427101508      0.00657440817962      1.76136869548424
  H   -2.14318666962192     -1.52458545427478      2.65905139944824
  H   -3.58633872475972     -0.85342412845935      1.88280234650357
  C   -2.96986595566544     -0.96063251045528     -0.63675535777314
  H   -4.01658512907398     -0.81661962067850     -0.32432166022094
  H   -2.98834968168619     -1.48562534650232     -1.59989890183360
  H   -2.54395932185123      0.04323476220373     -0.78916843569177
  C   -2.85506590298014     -3.14138156134974      0.57705030378841
  H   -3.94135643679000     -3.03092386965676      0.73285397641391
  H   -2.46487750183677     -3.69780594451905      1.43950528977112
  H   -2.71484632042761     -3.75468884902454     -0.32082269903560
  Pd  0.17472377255110      0.60103386832037      0.18642083454867
  C   2.21561927359370      0.50997039123535     -0.01044245979994
  C   2.84051343043944      1.44928550934266     -1.05602143418045
  C   4.21473888918845      0.85059872914058     -1.41608413905793
  C   3.26364755288485      2.66836638781353     -0.22537370626247
  H   2.21122275874596      1.63998653649771     -1.93820657056105
  C   5.03949464392152      1.08083877501354     -0.12407902463440
  H   4.65319621630323      1.38760630964638     -2.27262381176645
  H   4.14402841341972     -0.21085387519468     -1.70154794773110
  C   4.05891274228088      1.83803478656243      0.78548702031125
  H   5.93620425747353      1.68712473744829     -0.32467564660914
  H   5.38165414356475      0.14122125927667      0.33749022044265
  C   2.99009062370840      0.84880138057359      1.29559278636033
  C   2.15890645439506      1.41656735443342      2.44049498810614
  H   3.49297342292440     -0.06186381264721      1.66682712914302
  H   2.39350586353243     -0.52985929020001     -0.30415263242527
  H   2.41726520500252      3.20393468020083      0.22305590728176
  H   3.89049365197662      3.37695923848245     -0.79102633356906
  H   4.54585594715404      2.39836601655079      1.59786903784236
  H   1.38805577110873      0.69374320860284      2.75253166879341
  H   1.63546358762553      2.33306699795421      2.13387758978676
  H   2.79654827782966      1.63762495315448      3.31217863607392
  N   0.16467964479940      2.63912991020915     -0.10294558119395
  C   -1.19260310796294      2.65285879061538     -0.29198467323608
  H   0.63909217839808      2.86162265860180     -0.97741065303479
  C   -1.83472227513046      2.82470106679376     -1.54726288152693
  C   -3.21615690999590      2.77667605170790     -1.64500739369986
  C   -4.01445491796940      2.54229516168822     -0.51971909574483
  C   -3.42096221296244      2.36996887194113      0.73452665481713
  C   -2.02748586506140      2.42318882904624      0.83375644078879
  C   -4.26547931711024      2.17531742779517      1.96112530696655
  H   -1.54185407715355      2.35202439819342      1.81155220830711
  H   -3.68981866137435      2.91312989118473     -2.62117816869764
  H   -5.10227844066683      2.50309330562167     -0.61871684312410
  H   -1.21915378862355      2.99152583397619     -2.43557179081608
  H   -4.70999321389907      3.13025954769430      2.28671449605212
  H   -3.67575012721576      1.78281965818391      2.80139122296952
  H   -5.09810587414298      1.48052510318956      1.77150590483693
