79
Coordinates from ORCA-job gp_opt
  C   -4.15692992050297      1.68397518170831      1.21249150436274
  C   -2.64795168586728      1.95302554538919      1.04960411229365
  C   -2.14894333195502      0.98557699741750     -0.03633284431147
  C   -2.67029790420373      3.30803898565498      0.33030464654611
  H   -2.09558815440747      1.90221720717906      1.99974186756637
  C   -2.65980417823237      1.62333347356151     -1.36051729588664
  H   -2.60421627120916      0.00160899206387      0.11602579330585
  Pd  -0.13668649749867      0.58870099671255     -0.03272132699927
  C   -4.74742947177321      2.22646994165636     -0.11427984354186
  H   -4.55269893429543      2.23291911894124      2.08209205155326
  H   -4.37348119265870      0.61692813841113      1.37768255026653
  C   -3.51677764723213      2.79573720132754     -0.83795243492319
  H   -5.49114427017916      3.01600564475753      0.07358537044962
  H   -5.24789233974340      1.44664474537235     -0.70955623732119
  H   -3.31523489166978      0.90302467026545     -1.88150070125988
  C   -1.59033674385652      2.07456491642477     -2.34904528531947
  H   -1.67433915004948      3.65522364288607      0.02668029098539
  H   -3.17311798681252      4.09602583152182      0.91452000449143
  H   -3.76046793774627      3.53031058560564     -1.62039665541984
  H   -0.98235121903253      1.21693234289326     -2.67987573091477
  H   -0.90376550919196      2.79657917781051     -1.88516549494753
  H   -2.05193632519361      2.53302198453749     -3.23902038074977
  N   0.33967001293531      2.53811740127623      0.44823296496977
  C   1.64049905615457      2.19010242558956      0.70091907429955
  H   -0.12495647543583      2.80136009062514      1.31686487571189
  C   2.21985495804090      2.08592840818724      1.99191023276024
  C   3.53468492829364      1.66542972132968      2.13706118581801
  C   2.45063193369897      1.84513887732094     -0.41605680530337
  C   4.31882411468296      1.31769366304825      1.03607138849456
  C   3.76946762318140      1.41514748177054     -0.24635510509879
  O   4.57912857683408      1.07153623073386     -1.27591500267352
  H   1.61471027199013      2.33960611044448      2.86574968816330
  H   3.96701743788992      1.59536334625564      3.13892135043812
  H   5.35205710126039      0.98536049228468      1.14389419403410
  P   -0.18024719801036     -1.75308405437062     -0.10068307222272
  C   -0.75487458643270     -2.33735193295092      1.64219457694926
  C   -0.30719368721124     -1.28493483589502      2.66860128129656
  C   -0.23867224593158     -3.71154405288925      2.07460210771505
  H   -0.51820474490888     -4.51193349919864      1.37763664619404
  H   -0.67965788497516     -3.95950666124579      3.05456960299741
  H   0.85126721150087     -3.72899369281661      2.20056982220948
  C   -2.28696076271644     -2.35726650777086      1.70392964200473
  C   1.66667059732752     -2.24396395255596     -0.32200181434579
  C   2.42900839685635     -1.71599615642484      0.89881512705165
  C   1.96240963571442     -3.73529550976396     -0.49095979055107
  C   2.22853392327403     -1.50183946836015     -1.54609360097557
  C   -1.19695650591434     -2.70012403170290     -1.41821842115749
  C   -0.50724211774533     -2.53331385752422     -2.77639075989723
  C   -1.39014949509403     -4.19299168033189     -1.14142318703127
  C   -2.56792362197568     -2.03158076099527     -1.56808853871769
  H   -2.58522338897361     -2.55623596723068      2.74627681618525
  H   -2.73647418225860     -3.14213162782249      1.08354165818894
  H   -2.72268360399431     -1.38922062890290      1.42234328784174
  H   -0.69196303031250     -0.28847222012437      2.40297286113592
  H   0.78036762099201     -1.20210138945289      2.76635929660195
  H   -0.71226438497850     -1.56394383194224      3.65583632575691
  H   -1.20259131239780     -2.86780264570951     -3.56342625577720
  H   0.40247191426496     -3.13875121263187     -2.86868430342306
  H   -0.25643503751901     -1.48136236506787     -2.97884185902896
  H   -2.01155090828481     -4.37967573911607     -0.25615892523364
  H   -0.44238071888514     -4.73065743389490     -1.01384739173803
  H   -1.91253288561878     -4.64607997181895     -2.00089741620695
  H   -3.17877048335992     -2.06237159813046     -0.65928481917162
  H   -3.12735880366281     -2.55930801262779     -2.35839159014351
  H   -2.46145055772128     -0.98383067830806     -1.87511372054153
  H   3.05597601071676     -3.86665579704278     -0.54849942664021
  H   1.54480955646845     -4.14359623112900     -1.42127097584552
  H   1.60336848558029     -4.34610877516688      0.34567346491347
  H   1.97912421771488     -1.98933856277996     -2.49434240649124
  H   3.32635682485555     -1.46400770296905     -1.46583267864563
  H   1.87090318355455     -0.46394884128969     -1.58938535227692
  H   3.50937760284676     -1.80501815518981      0.70424966003268
  H   2.21448685131526     -2.28392427749591      1.81279919002879
  H   2.22559179888417     -0.65088748339197      1.08945161155715
  H   2.01947402268039      1.99837892625080     -1.40599604821728
  C   4.18902952134461      1.40777967142212     -2.57818908141408
  H   5.02461736585516      1.13775004926435     -3.23704919664760
  H   3.98796840709253      2.48889350630368     -2.67585508303344
  H   3.29175731562821      0.85351133442769     -2.90311199082566
