75
Coordinates from ORCA-job gp_opt
  P   -2.06120309703068      0.60687649674292     -0.09941088308751
  C   -2.94324418288621      0.03355665281499      1.49953344262443
  C   -4.12179252017183      0.91381044745316      1.92316928514169
  C   -1.89550350728727     -0.00301706591021      2.61904347895948
  H   -1.05047673294781     -0.64731120674096      2.34618012329384
  H   -2.36315972569743     -0.41803991588075      3.52711798202208
  H   -1.49581237510242      0.98312721543661      2.87663036922374
  C   -3.45254117870282     -1.40587988192284      1.34893381350208
  C   -3.12990209684403      0.10670768629103     -1.60484463512108
  C   -4.63126434192991      0.35844081484914     -1.45549221156542
  C   -2.62324939058236      0.84944294120162     -2.84642890929536
  C   -2.87533023831497     -1.38195062703716     -1.88358486766363
  C   -1.89238094624728      2.51886589202138     -0.05687897835009
  C   -0.79878742012548      2.89902258743020     -1.07104430846636
  C   -3.16384681889709      3.31020129458859     -0.36384192039183
  C   -1.34772440727192      2.94712232458480      1.31078569173578
  H   -3.83033763622076     -1.73558765139744      2.33045385372274
  H   -2.65571319930983     -2.10435475571381      1.05870546693595
  H   -4.28136283288755     -1.50238509224810      0.63684021826821
  H   -3.81782339218034      1.93804642609767      2.17246545615794
  H   -4.57498848676988      0.48304917163893      2.83170287863923
  H   -4.90820015511955      0.96665532421574      1.15905473110102
  H   -0.62525164382175      3.98639131367557     -1.01094109209096
  H   -1.05034531665389      2.66036559139642     -2.10865284418392
  H   0.17375913895920      2.42376844710861     -0.83995167633092
  H   -3.98835575656146      3.07220900675659      0.32026752185544
  H   -3.51548073158055      3.15480875936850     -1.39207789048371
  H   -2.94771513873473      4.38650447065054     -0.25717848380618
  H   -0.44520294572211      2.38027680815915      1.58527541116125
  H   -2.08163226608622      2.85409817645608      2.12077503363190
  H   -1.06240210002630      4.00995544846103      1.25117567527230
  H   -1.53811137999133      0.71894336598145     -2.97860790246260
  H   -2.85512936297875      1.92172868297346     -2.83315822058216
  H   -3.12020480612039      0.42071893357875     -3.73202381742735
  H   -3.20599855131507     -2.04595278695549     -1.07758592770803
  H   -1.80678896401839     -1.56661525402995     -2.06438573538036
  H   -3.42944393005184     -1.66770505183405     -2.79297371205391
  H   -5.08540968206091     -0.25001473452136     -0.66298943765113
  H   -5.13335326775322      0.08375431727241     -2.39827451923305
  H   -4.86606113430275      1.41166958473428     -1.25434380925688
  Pd  0.14831487604959      0.07534882487884     -0.49409004023317
  C   0.09937728060949     -1.89497333427475      0.01043099266413
  C   0.73606301809666     -2.79254546823268     -1.06552800547354
  C   0.08735477525002     -4.18134020238319     -0.90075134967357
  C   2.13887770997213     -3.06047753899563     -0.51170655773141
  H   0.67351290762212     -2.39985859835610     -2.09088231961311
  C   0.67353688861835     -4.67559471471883      0.44700778987676
  H   0.38102301839398     -4.84177523852077     -1.73217096606373
  H   -1.01252231458138     -4.12926306038215     -0.90221210858061
  C   0.80575233647128     -2.32664401162017      1.32603094803385
  H   -0.97440344572242     -2.10463704951022      0.07126609629254
  C   1.63007153502489     -3.54304845490930      0.85031838553046
  H   0.03624148402112     -2.66217260769104      2.04484547009478
  H   1.22086878243323     -5.62213934564078      0.32034020076603
  H   -0.09861628238003     -4.85122575082304      1.21251092531201
  H   2.76478829229810     -2.16117197417596     -0.44868967914178
  H   2.68017425117673     -3.83965997407897     -1.07201023178553
  H   2.39892208420430     -3.84481564845389      1.57704141324862
  N   2.04209576412611      0.16549631465625     -1.14864340083801
  C   3.11295476089490      0.69260991883689     -0.49227793341071
  C   4.45009771901968      0.39818199226621     -0.86159324024074
  C   5.52486249519038      0.94713207312055     -0.17346620804963
  C   5.33850842513416      1.79967640929864      0.91608820161047
  C   2.93324383181698      1.57375295595674      0.60141621032738
  C   4.02493644836485      2.08648475426790      1.27562317772772
  H   1.92842412414798      1.83425324495061      0.93989883704198
  F   3.80174108757425      2.89193477923597      2.32291464813275
  H   6.54198224826002      0.69734541239542     -0.48738960336618
  H   6.16841703540404      2.23156037135015      1.47565063160059
  H   4.62757748672017     -0.27532225125283     -1.70458974046176
  H   2.33578098620781     -0.47403762468863     -1.88095885012611
  C   1.67390468619720     -1.28993122930215      2.02397240074127
  H   1.10882365483386     -0.37181291123020      2.24265695673119
  H   2.53214896339242     -0.98899337912748      1.40950694701690
  H   2.05856622080492     -1.69059592019288      2.97530070758350
