81
Coordinates from ORCA-job gp_opt
  C   -3.50963196895069      2.79371533176155      1.39184462127585
  C   -2.13283253725654      2.10284722286966      1.33244220104928
  C   -1.87222135494349      1.69065592461468     -0.11451208171667
  C   -1.18822549916930      3.30279230598539      1.49307604998647
  H   -2.02806619599116      1.28088411012491      2.05468416955606
  C   -3.25008358674547      4.14831170673471      0.68311211561167
  H   -3.83172142850025      2.94079977043527      2.43536240820891
  H   -4.28240225486372      2.18711947785350      0.89729333240842
  C   -1.76602101668918      4.06281007384449      0.29132274030016
  H   -3.41891082190276      4.99598832989369      1.36502934642617
  H   -3.89503534476760      4.30591756204993     -0.19499407168558
  C   -1.65000990201026      3.03501535672547     -0.84965515969463
  C   -0.28533919131486      3.00328362109907     -1.54590926639789
  H   -2.41807464105573      3.24190064309329     -1.61465983906336
  H   -2.66187114803552      1.05394438284726     -0.53711337960439
  Pd  -0.06494305998543      0.81208050709190     -0.37786326753918
  H   -0.12456341548076      3.03636068317664      1.38309945649068
  H   -1.32285677304973      3.84590633090919      2.44294103651095
  H   -1.30907307710754      5.03797496039522      0.06069526093947
  H   0.54157532112271      2.59813578863905     -0.88864249131922
  H   0.09754366546092      4.01089142233391     -1.77641816910389
  H   -0.31127784582021      2.43153553985181     -2.48502641333759
  N   -0.69710849983386     -0.89114397879990      0.51630301193717
  C   -2.01003933467196     -1.27811655829093      0.55265346797435
  H   -0.33524077751463     -0.83780523739188      1.46554715387600
  C   -2.70404754287969     -1.53785788880257      1.74723976366316
  C   -4.01206695637212     -2.02472411299678      1.77549577750424
  C   -2.72795262426693     -1.50057268920047     -0.66014548951616
  C   -4.04074870037230     -1.96225023437223     -0.64421096338782
  C   -4.66432557131565     -2.22676664280410      0.57443985090181
  H   -4.52499220029588     -2.23451898217692      2.71541347803118
  F   -5.92315936998861     -2.68721972636553      0.56047939389348
  H   -2.17875163218721     -1.36257541834888      2.69059472552240
  O   -2.05079596996844     -1.22930302810431     -1.80085212078957
  H   -4.60278855343787     -2.14056056640725     -1.56013430127054
  C   -2.70421636556371     -1.39571819199512     -3.02303214764808
  H   -3.01607048482639     -2.44321937348895     -3.18403553563245
  H   -1.98673873860890     -1.11577004563222     -3.80564205741384
  H   -3.59412361730967     -0.74615537082527     -3.10548769208637
  P   2.14618071954211     -0.19539228957183     -0.67492513928165
  C   3.57742992102074      1.01478525446049     -0.97668965940334
  C   3.34206109103774      1.74442993693817     -2.30001635203087
  C   3.49514494422622      2.02736530664468      0.17122670121589
  C   4.96658902904660      0.38022542335606     -0.96217311099279
  C   1.98439033467424     -1.44764660664563     -2.09870037300262
  C   1.24066801326109     -2.66300918324260     -1.53182410756388
  C   1.05559165353294     -0.76826261665749     -3.11677194950205
  C   3.25788532313916     -1.88392373838599     -2.82268267489771
  H   0.86949315376414     -3.27384684843569     -2.37166770792994
  H   0.38233100439315     -2.34366994408227     -0.91872042225636
  H   1.88916130395225     -3.29933101435245     -0.91477426210920
  H   0.09334785490366     -0.51440999266010     -2.64652190446290
  H   0.86354532032083     -1.46852598456850     -3.94725331111697
  H   1.49076091892016      0.14536587216883     -3.54705188107753
  H   2.98221632193410     -2.61166493463726     -3.60430497393397
  H   3.99019645155164     -2.37892805577727     -2.17052047767671
  H   3.76224297909268     -1.04594275139455     -3.32460640072276
  H   2.51002756007950      2.51454934273112      0.22024125951880
  H   4.26063023303114      2.80785262754560      0.02600926338465
  H   3.67802852409613      1.55170769256182      1.14519096905447
  H   5.72768348333925      1.17186923613586     -1.06916769852411
  H   5.11651116951963     -0.33069163204113     -1.78434799099206
  H   5.16372869848967     -0.14124871103085     -0.01462513095133
  H   4.06216590700422      2.57418446781783     -2.39536322065853
  H   2.33021875866625      2.17247515603508     -2.35698482429353
  H   3.48318145071978      1.08718777200231     -3.16959410427270
  C   2.74494447786067     -1.12027209243671      0.79816812956483
  C   3.59238820066751     -2.22838441250830      0.70218019758528
  C   4.01019173619407     -2.94570258089551      1.82113746799836
  C   3.57708680323411     -2.54895621301340      3.08094607992993
  C   2.74900861652230     -1.43847134705231      3.22038131690380
  C   2.33843765186342     -0.71890715144764      2.09196481697162
  O   1.56198915574766      0.37929729470620      2.17718977465141
  H   3.88699387680772     -3.10059036705114      3.97163633624113
  H   2.42554755331711     -1.13265752884029      4.21512496849021
  H   3.93717372535190     -2.54660264624388     -0.28059681699978
  H   4.66708713685442     -3.80954057363591      1.70353620532456
  C   1.05966376133013      0.79256564757038      3.41814597921306
  H   1.86831101395768      1.08530756818764      4.10991000372973
  H   0.44918035813881      0.00526553261182      3.89378910820744
  H   0.42265829306387      1.66213373210749      3.21689843250746
