81
Coordinates from ORCA-job gp_opt
  C   3.99297659781849     -2.02520080966433      1.76222741576854
  C   2.52174808728002     -1.60782288105035      1.57595314810249
  C   2.27550821426796     -1.40312550038013      0.08317243118264
  C   1.79805842521418     -2.93674935796709      1.83708582896573
  H   2.23152533761586     -0.74808988694217      2.19577043837010
  C   2.32374771691996     -2.83474655273363     -0.50333481629388
  H   2.97225113934208     -0.69100880609340     -0.37982409237161
  Pd  0.36639625359367     -0.87132488251657     -0.33896975396526
  C   4.01874972270964     -3.46725905152936      1.19274251212027
  H   4.27412909072208     -2.00881598783705      2.82760534357603
  H   4.67317157423708     -1.33810330775590      1.23777114390542
  C   2.56486892426226     -3.69903397735604      0.74793532236677
  H   4.30600966545051     -4.19817449280861      1.96424844754803
  H   4.72366315150317     -3.58670459673675      0.35559638265672
  H   3.15190559921102     -2.97709092465804     -1.21846706004814
  C   1.00822836361587     -3.11909597847962     -1.23560843943136
  H   0.71150131523535     -2.88260937466548      1.66182423882372
  H   1.97538681580817     -3.34370677278496      2.84613591822055
  H   2.30341785887266     -4.76043522802015      0.61317237376080
  H   0.09798400707527     -2.79933599021075     -0.64656679471023
  H   0.81883792613890     -4.19668569404483     -1.36839237641876
  H   0.97843963500054     -2.64789928574442     -2.22905303982412
  N   0.65715115676072      1.01095309122856      0.37017189832910
  C   1.90892566548308      1.56462998842181      0.45084659692343
  H   0.23621849515945      0.99725717601153      1.29676845894713
  C   2.49098674619672      1.99640089403594      1.65472331158577
  C   3.74737463570113      2.60256437172308      1.71596317531941
  C   2.67567935367299      1.76575566033161     -0.73500066972933
  C   3.94007602294893      2.34613674233563     -0.68431222406433
  C   4.45988431077530      2.75874890154626      0.54218353833275
  H   4.17700556002699      2.93602998919733      2.66189014714684
  F   5.67896487479011      3.31558304588117      0.56414230383634
  H   1.92305434555761      1.84982195112470      2.57808726437496
  O   2.09909515570667      1.33784078048345     -1.88197987607681
  H   4.54251635777337      2.50052560453549     -1.57867158031342
  C   2.79899594220277      1.48586555604242     -3.08053778892918
  H   2.15644183544612      1.08015227682952     -3.87321785006837
  H   3.75218429740659      0.92708158712625     -3.07316666462010
  H   3.01410830926511      2.54627378931164     -3.30347308386107
  P   -1.96615892941830     -0.32592983373507     -0.82218747007317
  C   -3.14084747030543     -1.80517623532825     -1.02816590266152
  C   -4.62061638363333     -1.43658347925056     -1.11724197084394
  C   -2.93187732435133     -2.67027302401290      0.21943736337828
  H   -3.54307129700312     -3.58427641119130      0.13496069656569
  H   -3.23566010118028     -2.14406026444796      1.13541349942823
  H   -1.88066562351214     -2.96959409914091      0.34230146734800
  C   -2.71920614393532     -2.60518073247442     -2.26216525138453
  C   -1.97041584131810      0.78490441967619     -2.36547337495298
  C   -1.47593357157394      2.16503314183870     -1.91273649561096
  C   -0.88928323088863      0.19194742564505     -3.28324324473471
  C   -3.26987531881446      0.90615371520384     -3.15995366653055
  C   -2.80117995580411      0.61229371024899      0.52548049848946
  C   -3.83322070193911      1.52130169405185      0.27712426566108
  H   -1.64588796935273     -2.84617107947276     -2.24701334243788
  H   -2.93671956041421     -2.07407445479120     -3.19939865602097
  H   -3.27504059677523     -3.55707459091541     -2.28741628757360
  H   -4.95911191479832     -0.90107899434679     -0.21877505675613
  H   -5.21959572518189     -2.35958455367516     -1.19785555958770
  H   -4.85233413422041     -0.81778961977610     -1.99298614554433
  H   -0.79481900613613      0.82941008714928     -4.17842788456062
  H   -1.12884712131998     -0.82532804812073     -3.62442994703978
  H   0.08321837694806      0.17186777977421     -2.76765649465704
  H   -4.10512904777905      1.32013352468927     -2.57934466671131
  H   -3.59507798773473     -0.05457180515557     -3.58366042218178
  H   -3.09887683580607      1.59219694074695     -4.00635603505589
  H   -2.24742861971919      2.73546847136652     -1.37785909085815
  H   -1.18712208987332      2.74577103799173     -2.80461474586165
  H   -0.59622596855498      2.06552594445326     -1.25529418761638
  C   -4.43094189543761      2.22983481214390      1.30993983630953
  C   -2.40333387690861      0.41781944027449      1.86895270631535
  C   -3.01387978504837      1.14274895398079      2.89899488881901
  C   -4.02844796500218      2.05522861558535      2.62311276370295
  H   -4.19645579426971      1.70034800960081     -0.73307675612210
  H   -2.70235587083953      0.99843234330534      3.93305690859360
  H   -4.51005128330432      2.62535309711660      3.41932392062990
  O   -1.43652261235675     -0.49456213794101      2.09938782604002
  C   -0.93380673556383     -0.66837046466943      3.39539861262254
  H   -0.51548341922791      0.27017794351632      3.79963588642217
  H   -0.13016805753797     -1.41024364711986      3.31689249220610
  H   -1.70796198550133     -1.04260368845134      4.08764700054249
  F   -5.41132424427452      3.08988456507057      1.02674061926572
