85
Coordinates from ORCA-job gp_opt
  P   1.86186713564610     -1.55035800745821     -1.30562256368209
  C   2.65177793052167     -2.89236504381311     -0.19056764785395
  C   4.02730136862862     -3.38728172863472     -0.64040296257326
  H   4.79474177630819     -2.60433976454692     -0.58365947067758
  H   4.02102277009517     -3.78984835893398     -1.66173483992603
  H   4.34808146812617     -4.20099926120012      0.03139848258515
  C   2.74589066722585     -2.32598522249626      1.23245325883140
  H   3.18353327447837     -3.09610593044845      1.88891896867906
  H   1.74389922339168     -2.08620384762213      1.61578420405158
  H   3.36479626841827     -1.42685685968580      1.31366337385582
  C   1.70171191517756     -4.09065491840031     -0.08756068328598
  H   1.63441012226538     -4.67543420907410     -1.01325593000741
  H   0.68932791217978     -3.78213127477590      0.21606592728269
  H   2.08347583265322     -4.76629379179545      0.69511322654420
  C   3.19991863568730     -0.28255075151491     -1.80253433044550
  C   3.96823875615036      0.15175487022959     -0.54824652923766
  H   3.29399099816607      0.51784342600803      0.23947401712360
  H   4.62947484108648      0.98792622193163     -0.82747601469772
  H   4.60717572954403     -0.64081912395651     -0.13889944298814
  C   4.19362777296251     -0.79158734655062     -2.84958853161205
  H   3.71646063457883     -0.99326985630131     -3.81761512889238
  H   4.72731619745399     -1.69665007617088     -2.53463836799907
  H   4.94992536715857     -0.00806880846685     -3.02323569445380
  C   2.51067061239498      0.98016166494736     -2.33589946753809
  H   1.96840829758181      0.82076754486651     -3.27304221125164
  H   3.28801740124454      1.73765408907844     -2.52901033343523
  H   1.81505896466882      1.39628095369884     -1.59716947858549
  C   1.17874855292401     -2.39638328685447     -2.88788578276805
  C   0.84816967654851     -1.31701423317389     -3.92467796805996
  H   0.27011080226558     -1.78253716343088     -4.73974153130929
  H   1.74133174267241     -0.86826791292756     -4.37721745790121
  H   0.22840066842918     -0.51526358658247     -3.49436569632087
  C   2.08754811475467     -3.44565310854116     -3.52931187551014
  H   2.25670901995953     -4.31163562777955     -2.87643706350634
  H   3.06549618503571     -3.03777901793899     -3.81544746974737
  H   1.60670490084254     -3.82328229799135     -4.44747089968799
  C   -0.16803824447649     -3.04081112396507     -2.51595306240051
  H   -0.87436046815490     -2.30063302629213     -2.09393338261570
  H   -0.08522287645116     -3.87126836724137     -1.80885958318771
  H   -0.64081999697760     -3.43130863175970     -3.43245943359523
  Pd  -0.10818168019650     -0.83773184678826     -0.32625576965311
  C   0.48793087000087      0.81547259102348      0.57407685256986
  C   0.12181197725053      2.02691193883565     -0.01053137938671
  C   0.46909286499148      3.24845099516950      0.57470727151002
  C   1.17961199242548      3.26716851788156      1.77772615385902
  C   1.17852455649608      0.84257045509354      1.79004072578446
  C   1.52403705001805      2.05306091050750      2.38330743203798
  H   2.05888473117453      2.08138343039428      3.33508534730592
  H   1.44945157233759     -0.08098126055651      2.30305315153371
  H   -0.46024367726375      2.04241692064820     -0.93619125810226
  H   0.16231382031265      4.17270412402597      0.08379707108362
  O   1.56328077683472      4.39289340507651      2.42402458779009
  C   1.20487958385410      5.62816292732267      1.87928011469826
  H   1.64164043182907      5.78115673792402      0.87544451808248
  H   1.59666337009720      6.39936812047548      2.55527280462760
  H   0.10852898789793      5.74444568122880      1.80431548488937
  N   -2.00423598388083     -0.54710525998049      0.29456481881022
  C   -2.65630427396245      0.49617563877356     -0.36078189897228
  C   -2.74822678990347      0.48625296279315     -1.76378219243075
  C   -3.28813761531821      1.56261261658073     -2.46306335517780
  C   -3.78139805410772      2.68989685489883     -1.79907722638451
  C   -3.69395052076726      2.69900145964244     -0.39929026526580
  C   -3.14381800637225      1.63802579093861      0.30653920803477
  C   -4.40053598195613      3.83687039153965     -2.54397253045963
  H   -4.02651990029514      4.80632752596385     -2.17861972698313
  H   -5.49691950162485      3.85015111211382     -2.42217465477037
  H   -4.19082223844457      3.77827312362462     -3.62185357998124
  C   -2.42651590305464     -0.94983944546282      1.55421849514398
  C   -3.77709055126881     -0.87909223605799      1.95773766645921
  C   -1.52830530229619     -1.53995327398949      2.46346519002892
  C   -1.94808006019496     -2.01009171501726      3.70198296767584
  C   -3.28345492225107     -1.92135386936711      4.10898616629709
  C   -4.18310808319422     -1.35167876453915      3.19950386486037
  H   -5.24214789958079     -1.28186934549132      3.46758235730970
  H   -4.51727365809155     -0.46228608825662      1.27224522252665
  H   -0.47726632334538     -1.62032230169112      2.17420090620190
  H   -1.20993731589903     -2.45443889611984      4.37686158781818
  C   -3.73116508792307     -2.39174156187105      5.46263615549849
  H   -3.00739234354983     -3.09211768849421      5.90521273555471
  H   -4.70569869821611     -2.90199538583328      5.41281467985067
  H   -3.84435208832564     -1.55019993970561      6.16790020096607
  H   -3.05416326037344      1.69284380875306      1.39302454432785
  H   -4.04994293795552      3.57458932378317      0.15263609609321
  H   -2.38730691853086     -0.39353603452920     -2.30234008646728
  H   -3.33981131084236      1.51757989410340     -3.55506595509542
