114
Coordinates from ORCA-job gp_opt
  C   0.75195188354057      2.19052764496344      3.73337191512252
  C   0.96011704466138      0.72534419736151      4.09365602436912
  C   0.59528384239147     -0.20859089134004      2.94182730178767
  H   0.36812286725992      0.45756069857156      4.98390750027543
  H   2.01956569591791      0.56309045388843      4.36441027517669
  C   1.38414586662068      0.14794889362645      1.67433502327444
  H   -0.48167115554932     -0.12240694283155      2.71884653853262
  H   0.76587668818808     -1.24658441654606      3.25249181904546
  C   1.50271399898249      2.54812613610115      2.45714644624923
  H   1.06457422529771      2.83964408301445      4.56724463744820
  H   -0.32523778606402      2.37621673289587      3.57513509194598
  C   1.10974776506506      1.61343299358250      1.32000232299149
  H   2.59185116126984      2.48592949990361      2.63306219761049
  H   1.28208718060081      3.58864559495046      2.16728722815789
  H   1.60937387758810      1.89351418215375      0.38698754557384
  H   0.03364497028134      1.73170052483504      1.13735805377930
  P   0.93014775182659     -0.94899723065077      0.25299845814642
  H   2.46459678935910      0.01250211336997      1.86276840223338
  C   1.76413163185503     -2.61182176058268      0.46976035314443
  C   1.60607675706960     -3.25731027979796      1.84580684327888
  C   0.17852838539382     -3.71073518480141      2.12862715121962
  H   1.98864182933345     -2.59677328392870      2.63734965637483
  H   2.26675860530046     -4.14454655841846      1.86164294876535
  C   -0.31729418787125     -4.67483443007282      1.05775410890885
  H   -0.49157746946379     -2.83159041471251      2.16069418898895
  H   0.11643475063968     -4.17944985353272      3.12358189605697
  C   1.25653356205957     -3.57619400419251     -0.60857408637791
  H   2.82697565302461     -2.40288643453385      0.28662332012798
  C   -0.15016153591038     -4.10205626853993     -0.34315785531713
  H   1.94903131987968     -4.43686449758187     -0.62990607542142
  H   1.31830946399926     -3.11830436419066     -1.60806951864209
  H   -0.41984664903877     -4.85330743716796     -1.10231606650941
  H   -0.92487277559396     -3.31095230600348     -0.51715994521510
  H   -1.37153137914203     -4.93809060299993      1.23453021305745
  H   0.25954713152591     -5.61496827425996      1.12409915248716
  C   1.75664629121123     -0.36302721768313     -1.29003591203707
  C   3.05676716396623      0.17155723740191     -1.43298934057484
  C   3.53358043937413      0.44391024048140     -2.72250222919870
  C   2.77195392110857      0.19803930930420     -3.85909011576689
  C   1.48831576914298     -0.32145086945670     -3.72189540378294
  C   0.99597802656263     -0.59089378850192     -2.45010126941870
  H   4.53521316202692      0.86905533596866     -2.81894533248931
  H   3.17842459972527      0.42186142068295     -4.84824686271731
  H   0.86149317210701     -0.51120284167370     -4.59608084433435
  H   -0.01927701766196     -0.98751240635898     -2.33986090036033
  C   3.96993896889290      0.53374420422174     -0.31255378495451
  C   4.81318575295510     -0.41186962179153      0.29194615967004
  C   5.68241991000989     -0.03517249270202      1.32369877449349
  C   5.73740982720189      1.29911728922640      1.70965017848611
  C   4.97002079798940      2.27176550466961      1.07726844293729
  C   4.09995656628450      1.89092756972122      0.04829961477358
  H   6.41424466880015      1.59428152131384      2.51483996368058
  H   5.06072656411037      3.31434767073696      1.37816530246044
  H   6.32114737513972     -0.76969556822971      1.81272250693246
  O   3.33560349735965      2.74395120903707     -0.65496313950865
  O   4.71418231530209     -1.67755013686547     -0.17487940700136
  C   3.31230631503753      4.14267073230929     -0.37656530424926
  C   1.97765214231900      4.64962816575765     -0.88224130757689
  C   4.49456268208684      4.82500719480785     -1.04114759319677
  H   3.35536023696945      4.28574408901326      0.71771758328786
  H   1.14269291318039      4.16639188707795     -0.35618242358014
  H   1.87719595324402      4.43920717673200     -1.95774675894668
  H   1.89676633803758      5.73516433194102     -0.72802866843304
  H   4.48874894672117      5.90341527425146     -0.82432182734713
  H   4.43931200307133      4.68987251142012     -2.13196222586564
  H   5.45119994701453      4.40966893033691     -0.69281922743484
  C   5.78070514358855     -2.60768199507637     -0.00424117514082
  C   5.21891890875182     -3.96031354887032     -0.38809228453859
  H   6.07124176472151     -2.63811112192519      1.06150071889145
  C   6.97366460494258     -2.20179963899320     -0.85052758454374
  H   6.68746526589071     -2.17633694965988     -1.91293547521677
  H   7.79699678694769     -2.92047263430370     -0.72621966093203
  H   7.34381085271400     -1.20557420004965     -0.56875741930335
  H   5.99723080221970     -4.73290087001592     -0.31198444978756
  H   4.84696151795087     -3.93634349777152     -1.42341217418487
  H   4.38667671505352     -4.24307973855467      0.27237973807710
  Pd  -1.29262959936548     -1.34778128530991     -0.12868900647325
  C   -1.79611937022470      0.54493692614207      0.01119054643399
  C   -1.47264908657275      1.44340110278589     -1.01064286675134
  C   -1.71839277590001      2.80356416762228     -0.84961764907171
  C   -2.30080375891944      3.27466819365170      0.32876212115403
  C   -2.47147751370630      1.00751236296773      1.14436036176483
  C   -2.70969941572494      2.37078318518827      1.30975425776230
  H   -3.20856989840550      2.73475123436297      2.21030754575485
  H   -0.99683729839840      1.09697725997851     -1.92953668633801
  H   -1.43916568743016      3.50620905549656     -1.63802906757268
  H   -2.80684592905186      0.30895459142465      1.91476906891098
  C   -2.40679086701987      4.74882403779394      0.56461257483154
  F   -3.32917847808558      5.05346012048832      1.48117550249301
  F   -1.23797906788524      5.25309123781786      1.01129324391841
  F   -2.70580447044432      5.42371682733417     -0.55055844420555
  N   -3.20881421444670     -1.82337012260014     -0.61054419861527
  C   -4.13471019308584     -2.13573659585265      0.35972541303381
  C   -3.72203011242319     -2.29501673050180      1.70313750926165
  C   -4.61203852340068     -2.67378724784300      2.70048364944600
  C   -5.49580186710087     -2.39545382879999      0.07736356365474
  C   -6.37742072398128     -2.77486147747322      1.08300914639319
  C   -5.95457828648256     -2.91426125348014      2.40582900774686
  H   -4.24839762550407     -2.78162310439397      3.72630871696360
  H   -6.65513833349267     -3.21000846830790      3.18933910856252
  H   -2.66828647234540     -2.11761629303791      1.94440846168850
  H   -5.85160406056176     -2.31554365222423     -0.95098297634601
  H   -7.42113610884926     -2.97239721601145      0.82255854608983
  C   -3.57859094550720     -1.26388056433431     -1.83514144560100
  C   -2.87169288316841     -1.63868520687780     -2.99352579375219
  C   -4.54627264796418     -0.24839763776422     -1.95818685400167
  C   -4.78091791402742      0.36652539235975     -3.18302381990744
  C   -4.06053871615785     -0.00382426619335     -4.32036752862873
  C   -3.10212995087809     -1.01116099914319     -4.21473095298322
  H   -2.53525008198595     -1.32246790315194     -5.09651616325639
  H   -2.13392670071760     -2.44152605240086     -2.91061540553221
  H   -5.52565474011089      1.16447498106610     -3.24602314033546
  H   -4.24566450827916      0.48783515814182     -5.27795080926593
  H   -5.08617712486461      0.07920184241719     -1.06758322264152
