115
Coordinates from ORCA-job gp_opt
  C   0.46241696877839      0.18981988926976     -5.54160441436502
  C   0.00556251031169     -1.23521191015593     -5.25275729538033
  C   -0.20262128236952     -1.46855368672829     -3.75942260869803
  H   0.73871610683499     -1.96128542388486     -5.63887520023580
  H   -0.94008096833592     -1.42893857119103     -5.79226079544887
  C   -1.17371210499969     -0.44087816093179     -3.17351856783730
  H   0.76522574989487     -1.39800707419690     -3.23999528035536
  H   -0.57477679744951     -2.49053803973453     -3.59052703057781
  C   -0.52691758478935      1.20458741331507     -4.98126925952648
  H   0.59675271300863      0.33910575415757     -6.62517354171085
  H   1.45133422503242      0.35211111040688     -5.07666223178796
  C   -0.74974563061633      0.99425993650133     -3.48908456051488
  H   -1.49126531913980      1.10681691428973     -5.51276427923631
  H   -0.17525626071429      2.23324426349711     -5.16480729345169
  H   -1.49975973915011      1.69886973128060     -3.09857787613215
  H   0.18336434365428      1.20757363823722     -2.93964772616337
  P   -1.39033748106067     -0.59077149556736     -1.34267991109625
  H   -2.16864852967745     -0.61217421885242     -3.62394381251771
  C   -1.68910670891078     -2.38736874293139     -1.02431405873300
  C   -1.88867968376250     -2.63539356655418      0.47004161719473
  C   -1.97376550666379     -4.12700553637711      0.77210001361145
  H   -2.81090425986582     -2.12773579697095      0.79867790063717
  H   -1.07053825487841     -2.16671659667935      1.03932177109990
  C   -3.06031684640722     -4.80904377350824     -0.05056603139125
  H   -2.14888210752258     -4.28618960563080      1.84855135316930
  H   -0.99814936913152     -4.59404640445053      0.54711160499888
  C   -2.80516101521554     -3.04682229251790     -1.83208979644711
  H   -0.72088963735783     -2.83629632026697     -1.31572241619009
  C   -2.87224841537710     -4.54414449199787     -1.54011793077314
  H   -2.66966854623376     -2.87624700126428     -2.91208858661688
  H   -3.76942236946411     -2.58968476827942     -1.55281084974057
  H   -1.93796605021414     -5.02359408896733     -1.88337244868553
  H   -3.68908833334606     -5.00329883721369     -2.12028893222761
  H   -4.04657823365257     -4.42088717879917      0.26291840868602
  H   -3.07419549158334     -5.89271112665135      0.14911169626607
  C   -2.97250785261321      0.27033768542313     -1.02447304982856
  C   -3.03358469607385      1.17768409075593      0.04438317497409
  C   -4.24930716500882      1.81940241943346      0.31917859191969
  C   -5.38113042250882      1.58073995817459     -0.45117579865694
  C   -5.31250572815290      0.69735914394486     -1.52785095133649
  C   -4.11425318083861      0.05154774029193     -1.80990071396779
  H   -4.29105275485596      2.52485158155232      1.15265713167018
  H   -6.31731248430143      2.09381353091110     -0.21843902157261
  H   -6.19185851632067      0.51243239826962     -2.14908023070807
  H   -4.06612633693669     -0.63107026781311     -2.66011523708786
  C   -1.87429318755293      1.55522554733371      0.91410842228235
  C   -1.13855029656851      2.73502530877615      0.60475697304753
  C   -0.36197558415191      3.36392957050982      1.58371278883515
  C   -0.30503633449425      2.81732010176621      2.85735440317209
  C   -1.02727940906962      1.68205541505428      3.20801690041725
  C   -1.81801969321417      1.05716380553879      2.24477922188978
  H   0.33762063346789      3.29003063674229      3.60269287083138
  H   -0.94652737157670      1.28248683193284      4.21682925686475
  H   0.23363592107173      4.24376475182432      1.35255452578850
  O   -2.56833642448684     -0.03702134955493      2.47960052508819
  O   -1.28369632661038      3.19099173309104     -0.65219794961465
  C   -2.83834014518860     -0.45596060429409      3.81623556276926
  C   -3.32735714173776     -1.88477577869583      3.72633324518128
  C   -3.84890833163088      0.47600903952755      4.45969454594762
  H   -1.89600971452161     -0.44924703014537      4.39155152452670
  H   -3.58225038068467     -2.26201949374176      4.72699541321285
  H   -2.55306595031502     -2.53461670526471      3.29700042567475
  H   -4.22353845111373     -1.94492869316755      3.09039030958836
  H   -4.05034121953151      0.17073208200658      5.49702782212261
  H   -4.79446369525547      0.44913228765794      3.89683035077149
  H   -3.48328674679375      1.51284604719174      4.47295686725850
  C   -0.78108355169446      4.47907512878296     -1.01268721740085
  C   -0.63206509114016      4.48018895178873     -2.51795868748647
  H   0.21958315349317      4.60643965919270     -0.56811772503379
  C   -1.72280935122844      5.55648345098432     -0.50771154271070
  H   -1.83879627167259      5.50403786675810      0.58454286837856
  H   -2.71586199300655      5.43537088747043     -0.96691003986677
  H   -1.33789587302515      6.55504063465190     -0.76236102971787
  H   -1.59958507833835      4.28481355457839     -3.00474515376923
  H   0.08048347233748      3.70740272137883     -2.83720638703351
  H   -0.26128358095819      5.45749474397388     -2.85899309250506
  Pd  0.17148772059106      0.25482875776695      0.06470324449467
  C   1.57796545323322     -0.87157312235844     -0.76677784894975
  C   2.43182815682164     -0.37101947941753     -1.75200276354493
  C   3.43761421254080     -1.18938563733503     -2.27601305876116
  C   3.61167656229620     -2.49050276401068     -1.82442250483761
  C   2.77790676136759     -2.98351268331592     -0.81279912907931
  C   1.75650127385876     -2.17659362467833     -0.29622269081265
  H   1.12548549622282     -2.54852668696835      0.51137472775168
  H   2.33615385644787      0.65300349764154     -2.11521543064372
  H   4.10390851913122     -0.79422755715612     -3.04791499648382
  H   4.39949725384952     -3.13699836624802     -2.21484530373896
  O   3.02719842876090     -4.24099463327164     -0.38661208903964
  C   2.33253516830449     -4.71616423019614      0.73279145858652
  H   2.45664827009296     -4.05208303182131      1.60589428657451
  H   2.75038132471132     -5.70410770278198      0.96640400645862
  H   1.25223284817841     -4.83098655680605      0.52901102275487
  N   1.61992416722894      0.80041713785996      1.42734203419335
  C   2.01336165027288     -0.22026625824682      2.27543843482681
  C   2.39550936309418      1.91519453067112      1.20235803788086
  C   2.27795453886247      2.62675762802382     -0.01321695769535
  C   3.24279901325682      2.48062576414394      2.18501335229512
  C   3.92642608348688      3.66807863738530      1.95216949225730
  C   2.96992848194099      3.81121258085158     -0.23928526181883
  C   3.80621566727712      4.34978846705759      0.73891022547488
  H   4.56238680388382      4.07528072819352      2.74346217781445
  H   4.35258393665701      5.27833855625302      0.56149603636065
  H   3.33444594920419      1.98773384420286      3.15451446749296
  H   1.60496214953385      2.22994272284731     -0.77839289196425
  H   2.85479942674436      4.32028040184530     -1.20118485824683
  C   3.36080863491827     -0.56594573128837      2.51767248348049
  C   1.02698414347997     -1.04764289646470      2.85892503994086
  C   3.69084723022788     -1.65963350397003      3.30943453528212
  C   2.70200689966916     -2.45914531158950      3.88856242036042
  C   1.36453674283169     -2.14338264805032      3.64591373719216
  H   0.56832786625294     -2.75819456966827      4.07638072772893
  H   -0.02101064629959     -0.81818702655661      2.66077121840612
  H   4.15142708142520      0.01500120148133      2.04033226422220
  H   4.74561903884971     -1.90505538681952      3.46121316747124
  H   2.97116753396987     -3.31563837245021      4.51052566257710
