111
Coordinates from ORCA-job gp_opt
  C   2.44453608370972     -3.09751247353672      2.01230410515337
  C   2.37553707143459     -1.75209273637658      1.64289081223649
  C   1.79412175272242     -1.38937931373245      0.42517105795290
  C   1.94978229413164     -4.08835002105149      1.16513835746060
  C   1.40338045039686     -3.72667667986302     -0.06569044087833
  C   1.32682785625307     -2.38355942499804     -0.43832992191403
  H   2.79587022805751     -0.99281285161927      2.30685408795881
  H   2.90006467673422     -3.36918794456800      2.96852668699901
  H   2.00543438809585     -5.14020246442784      1.45595241685631
  H   1.03086960026410     -4.49497804237316     -0.74869163394531
  H   0.89053677804923     -2.12419132060447     -1.40472080714543
  Pd  1.71631406192272      0.50908635913760     -0.10536745002992
  N   3.69974485443235      0.46680775771462     -0.55721704558737
  C   4.67554976762591      0.66265285449876      0.39238911125990
  C   4.32290224790031      1.14954424689102      1.67296655901480
  C   5.28189132499565      1.41960924246775      2.64060388049575
  C   6.05499832040508      0.48064947232666      0.13871654681275
  C   7.00656242672983      0.75750280768116      1.11406740228012
  C   6.63850059471770      1.22292961841538      2.37712719895365
  H   3.26204565306643      1.31726923973504      1.88693251449203
  H   4.96201624904954      1.79132204065091      3.61830970836773
  H   6.37551732599659      0.13522879499236     -0.84559445332805
  H   8.06398090948631      0.61018595927191      0.87606886666654
  H   7.39297361779343      1.43488232819725      3.13750802858044
  C   3.91491882220784     -0.33048331062458     -1.68444913098337
  C   3.39072307629048      0.08633789424410     -2.92244882248781
  C   3.45685006551971     -0.73297280269786     -4.04676495646712
  C   4.06506962118670     -1.98553594977720     -3.97070754935186
  C   4.60099533379828     -2.40600219711455     -2.75156095835768
  C   4.52836857027111     -1.59629454340728     -1.62355325830222
  H   2.92851255409677      1.07536542588575     -2.98027271718636
  H   3.04007048883745     -0.38205137149037     -4.99508177123552
  H   4.12128766392674     -2.62930501324601     -4.85148350032738
  H   5.06597359699070     -3.39237584772264     -2.67258336972335
  H   4.91153365793297     -1.95083147505304     -0.66457328828568
  C   -1.17477198915507     -1.64166349579851      4.19424924181865
  C   -1.02041517116392     -0.12763957929587      4.25642057039555
  C   -0.42037732486017      0.44037958084513      2.97239249825872
  H   -0.39322126311213      0.16221551172977      5.11497843356362
  H   -2.01097675611512      0.33333704509229      4.42481195928404
  C   -1.26123719844552      0.04053932566526      1.75185713770608
  H   0.60208949453843      0.05022444085714      2.83422409017022
  H   -0.32642995151349      1.52912234846067      3.06794162957047
  C   -1.96911068053211     -2.05509620449900      2.96168279444890
  H   -1.65562365607753     -2.01664099444955      5.11254029663350
  H   -0.17427557855063     -2.10718920433978      4.14838588400907
  C   -1.34431314122483     -1.48774886789017      1.69328152921977
  H   -3.01003892127914     -1.69576309491242      3.05408400800926
  H   -2.01629036247860     -3.15440562215188      2.88898571228068
  H   -1.89136070233175     -1.81549984595375      0.80310087922678
  H   -0.32574844394734     -1.88938620062159      1.58960134737868
  P   -0.53824528168727      0.70173112219399      0.18255580861314
  H   -2.27910107788969      0.45904648411450      1.85447035151950
  C   -0.98125329792240      2.51586507035107      0.03533876149502
  C   -0.65959178332633      3.37431551417180      1.25884366338106
  C   0.83792091261060      3.54985981086100      1.48375598590748
  H   -1.16393261756115      2.98863743305574      2.15648038687439
  H   -1.10610914723542      4.36990955799598      1.07665977904319
  C   1.51192497830366      4.15013206870202      0.25598864466744
  H   1.29998460329770      2.56874001085642      1.70241882562904
  H   1.02053179411624      4.17988543384128      2.36875735152689
  C   -0.29333635458445      3.11239211170265     -1.19848160409386
  H   -2.06680614135016      2.51333688792574     -0.13267418297941
  C   1.19942154033274      3.35312827583673     -1.00300133363620
  H   -0.77820782378136      4.08320030510948     -1.40587828715004
  H   -0.47300571601558      2.49070069743586     -2.08922611756132
  H   1.62167569889443      3.84988794480352     -1.89098597658976
  H   1.76123459128143      2.38533359438844     -0.97778576022299
  H   2.60126705588272      4.20904529011262      0.40497965992169
  H   1.15384715565533      5.18649275787226      0.11755508295549
  C   -1.44544098662212      0.02444050538104     -1.27758214048345
  C   -2.83427891411161     -0.19834346639207     -1.41677266379192
  C   -3.32984856654654     -0.59714422369415     -2.66551511458813
  C   -2.50055585583691     -0.77496810112088     -3.76711134192218
  C   -1.13141062313195     -0.56750174112255     -3.63140561665501
  C   -0.62110085267417     -0.17614814273446     -2.39880210797308
  H   -4.40332902700952     -0.77866791304686     -2.75662750951851
  H   -2.92407887300309     -1.08548299802975     -4.72527736371219
  H   -0.45281032541217     -0.71468124455292     -4.47461169301169
  H   0.45799416488326     -0.02022990675856     -2.29038047524550
  C   -3.83591844912901     -0.11298871713859     -0.31627259169846
  C   -4.44844494322828      1.09662493336056      0.04716333205245
  C   -5.39942961702799      1.13304700700289      1.07548807262088
  C   -5.76983789455538     -0.05240093828514      1.69948870107733
  C   -5.24046495218947     -1.27706085418390      1.30569823687612
  C   -4.28968415498083     -1.30845875261729      0.27847052219910
  H   -6.50940448292573     -0.02456504907028      2.50309096927161
  H   -5.57655555054674     -2.19399562656882      1.78738149170749
  H   -5.85754008448712      2.07343203896293      1.37931549244604
  O   -3.73991768939828     -2.43215337692773     -0.21358920947648
  O   -4.05190694679298      2.19183404549441     -0.63974036969766
  C   -4.02967509910690     -3.71614283225698      0.33156182338618
  C   -2.84803836146107     -4.59455360307095     -0.02549976587226
  C   -5.34193969271618     -4.24185055291907     -0.22299958022002
  H   -4.09061321728421     -3.62671028186455      1.43096226024192
  H   -1.91499042542559     -4.19104305791406      0.39303023332394
  H   -2.73532166999320     -4.64879087515086     -1.11880825530077
  H   -2.99625579119576     -5.61278781553827      0.36225633290599
  H   -5.27364489656858     -4.33857818055284     -1.31712388844107
  H   -6.18075754069095     -3.57032905359621      0.00921226924914
  H   -5.56806597310958     -5.23201699197097      0.19958003056103
  C   -4.87298652697025      3.35515754907533     -0.70150916633363
  C   -4.00394350366459      4.44758194254792     -1.28775366704436
  H   -5.16407791426192      3.65148240761311      0.32247263247379
  C   -6.11484931774267      3.07794337596759     -1.52922236367475
  H   -6.71067974019204      2.26207910223054     -1.09533563879104
  H   -5.82602572727803      2.78913270148459     -2.55125178696483
  H   -6.75015275389109      3.97418580878160     -1.58416337248793
  H   -3.13996753724346      4.65238985056753     -0.63944127605844
  H   -4.58047283380101      5.37703205249556     -1.39803711647231
  H   -3.63015991467817      4.14531159411854     -2.27756404843650
