114
Coordinates from ORCA-job gp_opt
  C   4.22500382086332     -2.16365260366894     -2.52933026785026
  C   2.84691305887441     -2.80316127851242     -2.41149680662264
  C   1.91115088445585     -1.96875274284750     -1.54455069945115
  H   2.92429195704584     -3.82227175256844     -1.99875936955784
  H   2.41032021053437     -2.91078332201225     -3.42147379897280
  C   1.82914054308494     -0.52951364577761     -2.04116369566567
  H   2.25917468344923     -1.99027269332029     -0.50056005248170
  H   0.90569554816202     -2.40935438359342     -1.54496709834211
  C   4.11879060277435     -0.74027611162241     -3.06303626299600
  H   4.88193237353658     -2.77093839664442     -3.17323097534021
  H   4.69491656742568     -2.13985930109076     -1.52942104932003
  C   3.20658552914817      0.11639259165528     -2.18925614787127
  H   3.72365062770177     -0.76763272890385     -4.09520958768050
  H   5.11658253298806     -0.27553233484055     -3.12895476582000
  H   3.12057364832030      1.12883958369231     -2.60791236773151
  H   3.66454542495793      0.24095799291392     -1.19973950974091
  P   0.59274239948876      0.51884004161583     -1.11413162772624
  H   1.36615178191306     -0.57005500668800     -3.04497443453584
  C   -0.09099551592398      1.55623249349988     -2.49945172313618
  C   0.89506075839039      2.26860093766600     -3.42660938267178
  C   0.14348462931362      3.14798984813671     -4.42483887284862
  H   1.48223009604624      1.51956729716236     -3.98570589078446
  H   1.62041525208106      2.87267390417547     -2.86070327797681
  C   -0.86286409503974      2.34122140905408     -5.23732949340063
  H   0.86013637717421      3.65463632044629     -5.09168519870717
  H   -0.38679119261926      3.94499777866689     -3.87295376933788
  C   -1.05778610094632      0.70474833470279     -3.33169493268646
  H   -0.70681020950045      2.31065073417024     -1.98109300326071
  C   -1.81610458295266      1.56977356452694     -4.33177561456950
  H   -1.75059255299579      0.16610486247989     -2.66708615278369
  H   -0.49283356205609     -0.07100785786896     -3.87981064593087
  H   -2.45221161377123      2.27950196869891     -3.77383167973749
  H   -2.49625438285511      0.94343337665169     -4.93137270586049
  H   -0.31577064366462      1.62592497921350     -5.87837860477114
  H   -1.42455636531283      3.00130069702062     -5.91808854313238
  C   1.50771641548177      1.68064452677736     -0.00977797954769
  C   2.29424195326434      1.25599422525284      1.08608579994443
  C   2.85126978820953      2.21803233419257      1.93808174474191
  C   2.63750419872980      3.57827139384711      1.74829356174931
  C   1.84945149711956      3.99882431776874      0.68213535433988
  C   1.29387609493120      3.05751433869195     -0.17747265202426
  H   3.46269920592976      1.87125941911331      2.77410540433249
  H   3.07872352171003      4.30414447718076      2.43529277748972
  H   1.65174415020856      5.06064911566131      0.51952712075036
  H   0.65081829211970      3.41290314644383     -0.98091812886401
  C   2.59536760871951     -0.16587643173585      1.41213745083868
  C   3.89729434112563     -0.67062594217509      1.19924605755509
  C   4.20994736816903     -1.99628296462251      1.51437322900137
  C   3.23405591874773     -2.80677671055679      2.09025164352640
  C   1.97302705541236     -2.31040945590037      2.38693720165237
  C   1.66115968506309     -0.97957054471822      2.07301002439714
  H   3.47334320893374     -3.84616376169428      2.32670506670586
  H   1.23009653252361     -2.94759097933377      2.86691438261385
  H   5.20345944810128     -2.39806730549103      1.32117244402396
  O   0.45871695048261     -0.44162793302454      2.37567547183610
  O   4.77628705237880      0.20457147235207      0.67082120253732
  C   -0.03877142814624     -0.60894326614560      3.71488665333574
  C   -1.50152791082411     -0.23301249000480      3.70844112161590
  C   0.80120942177931      0.22311352239082      4.66505250472985
  H   0.04799038276970     -1.67473052810136      3.99055669582860
  H   -2.04241179974850     -0.79857727019534      2.93600901108808
  H   -1.63152373623320      0.83850534644563      3.50010741758595
  H   -1.94398828918111     -0.44927711696087      4.69165661365488
  H   0.44134198063363      0.10696886258097      5.69801758962154
  H   0.73924151388966      1.28695734508051      4.38917774342150
  H   1.85835323853105     -0.08212823490590      4.63429476708156
  C   6.16131841563249     -0.10290570641172      0.56118038538140
  C   6.73107776974535      0.90690635900755     -0.41251035268107
  H   6.27131017917549     -1.11423851191415      0.12828297178216
  C   6.83079756939048     -0.04494065730763      1.92305611739823
  H   6.75004584880461      0.97141497480773      2.33755401164566
  H   7.89716882747364     -0.30121084280560      1.83773996597128
  H   6.36695232264444     -0.74334465359140      2.63377885419190
  H   6.23473368439221      0.82786086805398     -1.38952301089699
  H   7.80882490817385      0.74076613823314     -0.55213388369337
  H   6.57806363842134      1.92722263779509     -0.03043172087324
  Pd  -1.17424833366441     -0.48489450886923     -0.04357653563161
  C   -1.92753134993567      1.34509448978682      0.09316848660926
  C   -2.98756304849095      1.74759633950195     -0.73070610650297
  C   -3.55824998572023      3.01068298162431     -0.59321457106461
  C   -3.10487716721951      3.91336851403183      0.37801752585050
  C   -2.05651245244126      3.50059034426646      1.20390758113124
  C   -1.47164775896084      2.23893584852216      1.06405991736675
  H   -3.39952662828925      1.06309283420850     -1.47574272789836
  H   -4.38781237202914      3.29487376381302     -1.24823751699648
  C   -3.74729378186036      5.26138639257395      0.53811726720953
  H   -1.67816267421573      4.18021250708350      1.97396381278609
  H   -0.64556667517841      1.95624000295594      1.71943962329540
  H   -4.75270366026610      5.17366244662721      0.98257635486010
  H   -3.86858551779904      5.76952118436984     -0.43124729888563
  H   -3.15317971446649      5.91568755148770      1.19225209398121
  N   -2.78721695093315     -1.52239457409117      0.76867150968113
  C   -4.12183129136087     -1.28040852051597      1.01439582032503
  C   -4.53353005249159     -0.01531380995598      1.48694359409494
  C   -5.86187238074257      0.23829371940207      1.80255663504774
  C   -5.10992765899867     -2.28885923110109      0.93763274728736
  C   -6.43694118352272     -2.02310404892866      1.26115592439522
  C   -6.83496122921422     -0.75539078415664      1.68228511902281
  H   -6.13845348035734      1.23608602828661      2.15446236150095
  H   -7.87915267563720     -0.54989880108759      1.92760089826291
  H   -3.78613665323088      0.76712101039116      1.60479373427408
  H   -4.82530229823069     -3.30181023112002      0.64805502764396
  H   -7.17094229086785     -2.83074726642170      1.18827746160279
  C   -2.31061315158454     -2.59712269165053      0.05786624588633
  C   -2.92833271146393     -3.18875231580230     -1.08213843002504
  C   -1.01053285326437     -3.05285730954575      0.40615329499396
  C   -0.38208557738253     -4.07478958784202     -0.31928820210691
  C   -1.01333201551217     -4.65262705117754     -1.40835972055534
  C   -2.28870817215984     -4.19181979909804     -1.78439100808862
  H   -3.90715491934263     -2.82713413647458     -1.40056975866021
  H   -2.78197583383015     -4.62861150255230     -2.65724077460241
  H   -0.56158500171181     -2.66561086933048      1.32277763845352
  H   0.60740768164195     -4.41784336165924     -0.00589105210385
  H   -0.53034915604264     -5.45412455382239     -1.97135354692763
