113
Coordinates from ORCA-job gp_opt
  C   -1.48508147345501     -3.50970654470189     -0.98573619532377
  C   -1.38127319971469     -2.30267709525138     -0.29234994470077
  C   -1.77516853168149     -1.10750222454486     -0.90125640425891
  C   -1.99042149364455     -3.53638602903264     -2.28542963077010
  C   -2.41622651904617     -2.34839448819075     -2.87883784715868
  C   -2.31609603787889     -1.13763063866782     -2.18883243044172
  H   -0.97918940813240     -2.30464160106800      0.72264896570747
  H   -1.16535371632609     -4.43622251078912     -0.50064955951405
  H   -2.06634377428268     -4.48172013278161     -2.82830567651328
  H   -2.83950867709548     -2.35880154567188     -3.88700149769602
  H   -2.68192702157991     -0.22120483542160     -2.65910455246713
  Pd  -1.63129969721286      0.60055465590066      0.07399129800368
  N   -3.61394792011781      0.54166868047112      0.48167792524670
  C   -4.56774501357910      0.94325968183510     -0.42037988477335
  C   -4.19129963020177      1.73044025058509     -1.53570190090210
  C   -5.12725157986358      2.19943491947371     -2.44711341022457
  C   -5.94795968725323      0.67179980305087     -0.27069595377745
  C   -6.87637261325633      1.14972709885053     -1.18924753187514
  C   -6.48503604211916      1.91232798386598     -2.29029697859052
  H   -3.12969546852152      1.96873109305139     -1.66123731672328
  H   -4.78936581707426      2.80246754051554     -3.29483664700115
  H   -6.28610268601503      0.09089623207540      0.58891658041795
  H   -7.93513864176617      0.92092503729151     -1.03633367799324
  H   -7.22162940600389      2.27976319745364     -3.00774937913926
  C   -3.88017314005378     -0.45037686092565      1.43859495294637
  C   -3.49837728872480     -0.24644804062656      2.77324933711082
  C   -3.61718134661766     -1.24995112749576      3.73081748819044
  C   -4.14296635306144     -2.50567903751758      3.39346605914241
  C   -4.53535607570153     -2.71287553885017      2.06001994959438
  C   -4.40274781889835     -1.71293543200312      1.10683377070697
  H   -3.09611410866864      0.73104190354143      3.05233919365578
  H   -3.30563246192028     -1.05554164276323      4.76160369858359
  N   -4.22105940129595     -3.52999619996650      4.32972053746973
  H   -4.92924730726154     -3.68964152454663      1.76362236794361
  H   -4.67920573669753     -1.91221719815265      0.06920976709998
  C   1.40215740940588     -0.70739296790806     -4.48480946310155
  C   1.31621656097459      0.79162177155504     -4.22632814255263
  C   0.67035712544515      1.10599775547629     -2.87872603255580
  H   0.75123020176438      1.29002718837359     -5.03073432695079
  H   2.33319537583761      1.22494891756868     -4.24558990370572
  C   1.42327150087919      0.41044163569742     -1.73684304956644
  H   -0.37378951899211      0.75009818237023     -2.87096327018213
  H   0.62917367412000      2.19384937336772     -2.74186082998213
  C   2.10539281513660     -1.41779930278994     -3.33501691963055
  H   1.91688950044125     -0.90351215632369     -5.43962246648429
  H   0.38106673853184     -1.11572551239452     -4.58567623424499
  C   1.43170234638376     -1.09820454600351     -2.00638084564985
  H   3.16557625676940     -1.10857688056025     -3.29783994208644
  H   2.09785340271932     -2.50830206919950     -3.49861586980140
  H   1.90654227265261     -1.64029921365125     -1.18170527274635
  H   0.39085125434932     -1.45025572262827     -2.04640604436566
  P   0.64374223719370      0.75413952240475     -0.09440784769773
  H   2.46334204716486      0.78219229049983     -1.69740844671067
  C   1.14853261952361      2.46774575235263      0.46924445675476
  C   0.94957901463178      3.58437391271783     -0.55581489795476
  C   -0.52039647021168      3.88758989710089     -0.82253917261959
  H   1.49592145890226      3.36783100942037     -1.48544146299934
  H   1.42690844390352      4.49211531021141     -0.14028915129706
  C   -1.24833471194368      4.25132305295669      0.46609446319945
  H   -1.00561318923008      3.00080949540792     -1.27207818118538
  H   -0.61606815232986      4.70052091608241     -1.55986586685147
  C   0.40176824999452      2.81863755576304      1.76197828907357
  H   2.21800267089786      2.37201925745716      0.69872345374242
  C   -1.06043460220778      3.18789792931458      1.53964269835893
  H   0.91524007856022      3.68734249321983      2.21196948984956
  H   0.48712351061431      2.00452037162546      2.49852541833488
  H   -1.51542046118542      3.51165195787703      2.48928550616492
  H   -1.66970587627652      2.28858434015775      1.27339333539752
  H   -2.32131669613711      4.40437469858589      0.27208009001886
  H   -0.85394939980872      5.21202639418303      0.84480477084704
  C   1.46025077951603     -0.26639897649835      1.21257328691713
  C   2.83497761768239     -0.56633907984637      1.35319937117517
  C   3.25987554847639     -1.25095229359175      2.49973165969211
  C   2.37365766600973     -1.64192984276627      3.49727228273053
  C   1.01843090874665     -1.36047927943000      3.35640095687042
  C   0.57804720678349     -0.68240987253385      2.22503224812658
  H   4.32264341670442     -1.48694143989793      2.59180234335522
  H   2.74240349887837     -2.17534684274976      4.37672305652664
  H   0.29587334771756     -1.67008439484453      4.11472470852826
  H   -0.49028650441792     -0.46546764848620      2.11133369014120
  C   3.88716830202356     -0.28255361124183      0.33507628090097
  C   4.55640071638480      0.95011726738618      0.26628582081133
  C   5.54493921691089      1.17143825059659     -0.70209158000045
  C   5.89852478917613      0.13651119808471     -1.55985130746938
  C   5.31410595430094     -1.12132751297119     -1.45963724793512
  C   4.32295403877385     -1.33615665866529     -0.49407691873858
  H   6.66888276589161      0.30883626727058     -2.31512437297186
  H   5.63648429447423     -1.92431680367112     -2.12069042165348
  H   6.04730021388086      2.13464666606173     -0.77894878601496
  O   3.71404064889712     -2.51598868136589     -0.28231755309296
  O   4.17639758301985      1.87939617088772      1.17066653223851
  C   4.01011051051882     -3.66862124908010     -1.06452324064392
  C   2.79475097284923     -4.56641595296133     -0.95589437006534
  C   5.27986977317102     -4.33347532658109     -0.56266231986615
  H   4.13355183505028     -3.35983049342336     -2.11799169456458
  H   2.61347287985195     -4.82838911039796      0.09734867314116
  H   2.95090031285738     -5.49325441788702     -1.52646172769863
  H   1.89649679837082     -4.06308659949804     -1.34113708738575
  H   5.51942404924890     -5.21705505198478     -1.17282214267557
  H   5.14564975281797     -4.65769711791397      0.48044906115627
  H   6.13889050695000     -3.64828699844646     -0.59967296519585
  C   4.99138025909792      3.01565912737721      1.44300294855093
  C   4.12268508913918      3.97671771184561      2.22668723949456
  H   5.27354259797151      3.49715958889525      0.48927871332288
  C   6.23913958733979      2.60121871148858      2.20234584131113
  H   5.95783731822277      2.14117586001981      3.16176240019995
  H   6.87322788345560      3.47646687880378      2.40663600610927
  H   6.83408723524501      1.87309528157301      1.63283792388479
  H   3.74771491840141      3.49031257621068      3.13974606054514
  H   3.25995760615727      4.30490831925071      1.62996179151333
  H   4.70145935109442      4.86589102826089      2.51465743577907
  H   -4.90586996459083     -4.24568804918874      4.12090725721420
  H   -4.28215441050238     -3.22486478167095      5.29312185754127
