96
Coordinates from ORCA-job gp_opt
  C   -2.52100807934815      1.71083254260298      0.15353668079773
  C   -1.65486071571223      2.98965388978050      0.14182007725414
  H   -1.24960905964814      3.18711816719584      1.14870608352095
  H   -0.78101190348078      2.83265585982455     -0.51126586116071
  C   -2.47358780453896      4.19244798912999     -0.33208455309839
  H   -1.82717887431983      5.08529224570883     -0.32476940212950
  C   -2.97550193125985      3.92939511488380     -1.75312844161805
  H   -2.12029190999563      3.78681142999785     -2.43471134747018
  H   -3.54415027725908      4.79819862002451     -2.12547112231603
  C   -3.86048247373889      2.68163970926861     -1.75278253650736
  H   -4.21964375184538      2.47982463955210     -2.77539772297321
  C   -5.05279037168748      2.89483977453725     -0.81843541826667
  H   -5.71013815579902      2.00839000870374     -0.83136457176078
  H   -5.66100138985073      3.74811589768438     -1.16297051228938
  C   -4.54188398832143      3.15348182310280      0.60033996190668
  H   -5.39635585270209      3.29554037441505      1.28280166790181
  C   -3.66345448548277      4.40566819903558      0.60586595382835
  H   -3.30702274006885      4.61575347550969      1.62884189737599
  H   -4.25120931543395      5.28233504978014      0.28520437847327
  C   -3.72556204929874      1.94741047956748      1.08491715972067
  H   -3.39011512412228      2.13747871785066      2.11643392434845
  H   -4.37245549595573      1.05903652643457      1.12012809855486
  C   -3.05191038553927      1.47211943686747     -1.27152111160804
  H   -2.21572870014860      1.28115568049265     -1.96109988131892
  H   -3.70013588661428      0.58183269387137     -1.28975750264574
  C   -2.13190938070802     -1.37073067140561      0.52350062366077
  C   -2.12431395535300     -1.82877187277495     -0.94631424085977
  H   -2.76251141098726     -1.17781484548385     -1.56043504639056
  H   -1.10477389135235     -1.74272572964213     -1.34469212776536
  C   -2.61413094170114     -3.27553723047467     -1.06086620139577
  H   -2.61082055881488     -3.56428939814983     -2.12480564665381
  C   -1.67854312419500     -4.19428589771852     -0.27437895231255
  H   -0.65708040681659     -4.13918051834902     -0.68620567431135
  H   -2.00578606542384     -5.24371281008904     -0.36607370851201
  C   -1.67748412169576     -3.76726815633114      1.19337529900423
  H   -0.99378382115664     -4.41280627331612      1.76979575835324
  C   -1.20000024656574     -2.31770488029744      1.30739227593552
  H   -1.17875443127796     -2.03637112074982      2.37249500190158
  H   -0.17317252618568     -2.20905571838739      0.91774671160566
  C   -3.55758587707049     -1.50178800382302      1.07628149081713
  H   -3.60477208389465     -1.16793504332782      2.12673256718204
  H   -4.24574942368652     -0.86119749630549      0.50355636722490
  C   -4.03134149469166     -2.95824242236107      0.97181754390894
  H   -5.05283172938124     -3.02859473243175      1.38090516872876
  C   -3.09358898795245     -3.87089731731196      1.76544237313137
  H   -3.44962597969525     -4.91360460039401      1.71611410138693
  H   -3.09456663322054     -3.58282419054295      2.83081659400727
  C   -4.03352099450299     -3.38348077442664     -0.49905705973385
  H   -4.72118890595202     -2.74275120052773     -1.07716768907514
  H   -4.40359144440510     -4.41815654716560     -0.59435013194884
  C   -1.24547885202177      0.60764039087567      2.51881523752023
  H   -1.50867825534745      1.66146446154840      2.68583400772532
  H   -1.98937799935578      0.00042590220299      3.05671895310693
  C   0.14368222315813      0.37768718701999      3.08044528800392
  H   0.18862438317655      0.75483493867996      4.11991758391719
  H   0.40967477932034     -0.69539737496366      3.10668972550387
  C   2.34156651351175      1.23550486647774      2.85442629698522
  H   2.28414000528174      1.90280371911859      3.73240093471113
  H   2.97501625030632      1.67081087721753      2.07168528863658
  H   2.76562376851267      0.26326649773846      3.15330047619811
  C   0.48679841712282      0.41383428843348     -1.98410540976535
  H   -0.58224469260607      0.20374001353917     -2.11895526458959
  H   0.64984178809707      1.44135701584552     -2.35933072592695
  C   1.28059429777100     -0.58260526116519     -2.85999565677831
  C   1.62896120273715     -1.87271238005760     -2.11345027872863
  H   2.18623349830128     -2.56393101593401     -2.76686279567552
  H   0.72421726129909     -2.39814446540169     -1.77132507475787
  H   2.24100393401203     -1.65612280336724     -1.22913111685945
  C   0.39521201058600     -0.93323549193510     -4.06611801733834
  H   -0.53423400402165     -1.43383039737670     -3.74857242944923
  H   0.92088344692124     -1.60823066767239     -4.76161298917427
  H   0.11333806427693     -0.02689762800037     -4.62618267279160
  C   2.57020873663027      0.04691254925293     -3.39063033223775
  H   3.26285236031191      0.29240819977629     -2.57769799270359
  H   2.35156490624601      0.96950765374938     -3.95311841368649
  H   3.08822220634150     -0.64610946822170     -4.07328594582885
  C   3.89915476408011      0.32229152773599     -0.16944181250359
  C   5.12201580590836      0.70503355839520     -0.76440063379744
  H   5.13675088192409      1.63594954102931     -1.33840309905544
  C   6.29561969978806     -0.03774676633543     -0.65102355584155
  H   7.22279997409361      0.28994665644420     -1.12435716655658
  C   6.26820679241207     -1.21850480165314      0.06729860119340
  C   5.09394656825695     -1.65821982180951      0.67279954916673
  H   5.12027208745309     -2.59789126553677      1.22331182118137
  C   3.92906778192544     -0.90376023661672      0.56197135918632
  C   2.68665630216702     -2.54306058266263      1.73792362759816
  H   1.65217174646301     -2.68213769165742      2.07862850571196
  H   3.35978350028184     -2.61284583126858      2.61202055617856
  H   2.94106594025121     -3.35560758200343      1.03383047548353
  N   2.77177619727567      1.07989643686105     -0.26630425210319
  O   1.06244429720795      1.07892758583941      2.28314923643902
  O   2.74812351707325     -1.29062320615456      1.12671115403834
  F   7.37711207908127     -1.96658410392401      0.18692409470199
  P   -1.34919527037443      0.33015090014170      0.68006620393823
  Pd  0.82501247064144      0.58279567551708      0.01273865048959
  H   2.92391736207985      1.85262039674304     -0.90696755197540
