96
Coordinates from ORCA-job gp_opt
  Pd  -0.84366930974525     -0.50812046745438     -0.15031096313650
  N   -2.67217236373315     -0.71961141908247     -0.88958791778202
  P   1.37205370478035     -0.02588263879580      0.22704733557645
  C   -1.48352799457811     -0.51421655835685      1.77879150903000
  C   -6.41021604738582     -2.36125510951288     -0.76124626480532
  C   -3.73544339433343      0.10304230268965     -0.63208133580202
  C   -3.59400528843063      1.48105474770991     -0.39198350649344
  C   -4.68327318703672      2.31216183138833     -0.13063943060390
  C   -5.95262866830021      1.76082799402027     -0.10911307498799
  C   -6.15843338593477      0.40138201838557     -0.33761476596387
  C   -5.06224990615568     -0.41754225873115     -0.59006387211444
  C   -1.74316437442254     -1.86305104354043      2.45361075190690
  C   -2.65416514369486     -2.76097131183175      1.61584268403125
  C   -2.44684660608844     -1.55913612880690      3.78700280708085
  C   -0.43997117424779     -2.60845338653428      2.74083272852536
  C   1.58276092588858      1.77972751970859     -0.26573255437084
  C   0.92398567895787      2.59402194813891      0.87049136712784
  C   0.94831468880631      4.08975604540111      0.54469913940626
  C   0.15471379506022      4.34583373558001     -0.73691290754474
  C   0.78936020554287      3.55721390762827     -1.88252491589221
  C   0.77314639182995      2.06143467272401     -1.55010712210036
  C   3.02314815596455      2.26671303224126     -0.48460223827911
  C   3.03070560988542      3.76755722831081     -0.80377351701274
  C   2.23396517814441      4.01963677584762     -2.08531696678787
  C   2.39844704852927      4.54318864894164      0.35474585918868
  C   2.42802450622069     -1.20398415652820     -0.79816595380976
  C   2.14983070528186     -0.97374941155496     -2.29390838405463
  C   2.85794686401266     -2.03304040205741     -3.14363588572811
  C   2.35743987574150     -3.42630522470647     -2.76014259074609
  C   2.65595273387873     -3.67913689822582     -1.28137762981824
  C   4.16414194778310     -3.59452402978511     -1.03837342528153
  C   4.65923382141176     -2.19806147651836     -1.42080268903698
  C   4.36627811942565     -1.93977170279037     -2.90033298719918
  C   3.94535356429973     -1.14929980522465     -0.55627610240403
  C   1.93972391619920     -2.62414574193957     -0.43465740114220
  C   2.03433641356875     -0.19659267928127      1.94081690243268
  C   3.31107211903865      0.47535106513849      2.40923510443681
  C   4.74299829638090      0.50657321808226      4.25081035106211
  O   -5.15247531799604     -1.75518434799749     -0.80337426512145
  O   3.62538112579772     -0.07431835375688      3.65623511143463
  F   -7.01810252147813      2.53461458642713      0.14256061191339
  H   -2.58329036657468      1.89645855929583     -0.41358830110372
  H   -4.55339303756972      3.37961021550209      0.05540374940297
  H   -7.17683866305259      0.01572103902438     -0.30212199087284
  H   -6.89523458434825     -2.23187921405854      0.22296399224114
  H   -6.25368697180239     -3.43264686939272     -0.94165914813178
  H   -7.08340818172777     -1.96207614960439     -1.54090702773106
  H   -0.77773221355548      0.08081258373655      2.38067479949148
  H   -2.42302478843997      0.05588393727812      1.68564848314318
  H   -2.14515234789754     -3.07830928855496      0.69266217934296
  H   -3.57934768710357     -2.24384867207097      1.32312492389295
  H   -2.92771641681408     -3.66646075645071      2.18195174309389
  H   -2.62991812172584     -2.48751808737340      4.35269198303603
  H   -3.41719037325333     -1.06773877238754      3.61670184558526
  H   -1.83618182504525     -0.89472378741547      4.41889780362553
  H   -0.64271158169176     -3.57639297834518      3.22673993336648
  H   0.21646806547319     -2.03214725731546      3.41111326153138
  H   0.10654133774827     -2.80529763262272      1.80673744134455
  H   -0.11544685859836      2.24868500522293      1.00735987244001
  H   1.44472228797581      2.42387356005743      1.82490970007649
  H   0.49269630123196      4.64162494491497      1.38326295470147
  H   0.14761778333956      5.42330728431608     -0.97293247010991
  H   -0.89614501869864      4.03967034145366     -0.60155664089825
  H   0.21294414458788      3.71576895134602     -2.80846612069134
  H   1.18315582578297      1.49868833057894     -2.40019632979081
  H   -0.26598949861840      1.71330533505487     -1.41280460758590
  H   3.48345924817515      1.71654663288084     -1.32099477349445
  H   3.64434721101653      2.07689609031297      0.40254167926397
  H   4.07450091036958      4.09467658850874     -0.94368521086345
  H   2.69246559133675      3.47632166992521     -2.92926563698296
  H   2.25827791089352      5.09172821298310     -2.34385437224136
  H   2.97322087073919      4.37549353482083      1.28202936458362
  H   2.43428856862415      5.62615090502756      0.14868161547549
  H   1.06155600726219     -0.99761238849929     -2.48169260487620
  H   2.50797908548282      0.02211893626325     -2.59727693029588
  H   2.63919574023367     -1.83786674762191     -4.20632277971051
  H   2.84861472807085     -4.19166824780058     -3.38427004188234
  H   1.27337423799561     -3.50483417908058     -2.94760978103443
  H   2.28531226944667     -4.67582518579966     -0.99070644572750
  H   4.39079445820925     -3.80110542932777      0.02144272531513
  H   4.68950832645864     -4.36013686799967     -1.63382187344005
  H   5.74431232852254     -2.12553210681760     -1.23843383720090
  H   4.89922803233949     -2.67524539596911     -3.52629285708495
  H   4.73697487188065     -0.94247375448686     -3.19318491921659
  H   4.16616752921246     -1.35451866175635      0.50278381836278
  H   4.33989848086464     -0.14784839551915     -0.78497293614428
  H   2.12206250953227     -2.82628737245910      0.63366385364848
  H   0.84788360655927     -2.68822514324672     -0.58432347940189
  H   1.22030175141554      0.08907140520893      2.62313577327548
  H   2.15552429244435     -1.28131478657574      2.08451299135270
  H   4.14606402045658      0.32193839668547      1.69943396102841
  H   3.17357062540736      1.57133063010738      2.49996402773373
  H   5.65430604933841      0.38686823578204      3.63106914601383
  H   4.91062145639405      0.00869178450853      5.21582865140051
  H   4.59937377466523      1.59024295359967      4.43457625174888
  H   -3.00526241183861     -1.67674866119459     -0.97785100413909
