114
Coordinates from ORCA-job gp_opt
  C   2.43304140225618     -2.35715635437399      2.83410442779508
  C   2.32110905735991     -1.14101854561645      2.15566091456706
  C   1.78184492518891     -1.10585283472883      0.86767791583264
  C   2.02089608851944     -3.54373406999659      2.22862132301657
  C   1.51718537489383     -3.51038286152793      0.92863972959591
  C   1.40124234304243     -2.29829958923565      0.24620922540914
  H   2.67546619020931     -0.22501094127512      2.63514909064184
  H   2.85474723808999     -2.37262528509857      3.84281221810929
  H   2.10678769651608     -4.49336462851551      2.76232912429026
  H   1.20860832892380     -4.43582434427938      0.43450087180631
  H   1.00153479599205     -2.29486276469698     -0.76967563760796
  Pd  1.63421245310984      0.60853313700292     -0.09386475702430
  N   3.63188252367794      0.55507399608357     -0.47439341257534
  C   4.56255489773756      1.01368055078686      0.42754181557478
  C   4.14431440958872      1.78910232870382      1.53490178748917
  C   5.05409443683212      2.32050150993615      2.43953014666363
  C   5.95561594366983      0.82212885260285      0.27601402657879
  C   6.85739122667721      1.35920025121576      1.18806070664043
  C   6.42496074660495      2.10843748137975      2.28304796238813
  H   3.07138809942815      1.96807309040996      1.66248646151081
  H   4.68396624591641      2.91180399924618      3.28197311423292
  H   6.32637653998755      0.25809710733787     -0.58130390436888
  H   7.92699474760952      1.19045715744085      1.03335496870824
  H   7.14078083051761      2.52365404787447      2.99540304324811
  C   3.91672466698772     -0.47679850412132     -1.37332510618468
  C   3.41646237569308     -0.39957846736319     -2.68367628015746
  C   3.54523723997900     -1.46520071260006     -3.57189948829646
  C   4.19416665258304     -2.64625521954836     -3.20117189757686
  C   4.70584907022393     -2.71736717056326     -1.89707779633452
  C   4.57152023470943     -1.66632507274135     -1.00040223675248
  H   2.91537831160434      0.52165810143842     -2.99290439224689
  H   3.13953312960391     -1.37079888092710     -4.58411172947808
  C   4.34486006922375     -3.79723923035863     -4.15352185065201
  H   5.20218181790175     -3.63518755181073     -1.56678838197527
  H   4.93653087926926     -1.76954355168141      0.02348286498058
  C   -1.39189026048127     -0.73773124615550      4.45794776720923
  C   -1.30701732901118      0.76266384816143      4.20732386659751
  C   -0.66181537395871      1.08443068786010      2.86115254783704
  H   -0.74209054061039      1.25720114681389      5.01408976327050
  H   -2.32424666163204      1.19521273158613      4.22896875235505
  C   -1.41459315673753      0.39376973700195      1.71642473674805
  H   0.38252689184458      0.72942253145053      2.85176344643369
  H   -0.62205922839216      2.17298043654100      2.72941430275914
  C   -2.09592629541611     -1.44257950039749      3.30526893126359
  H   -1.90561494489803     -0.93897415782298      5.41218357008092
  H   -0.37055127063374     -1.14615365987612      4.55595324708087
  C   -1.42379232526478     -1.11657071638760      1.97740135673445
  H   -3.15608681735076     -1.13303527020765      3.27052950175323
  H   -2.08829908586249     -2.53382801375688      3.46348564426568
  H   -1.90131954004404     -1.65328218707770      1.15062684728363
  H   -0.38323760907510     -1.47014307415402      2.01370057555005
  P   -0.63872391972758      0.74534994443748      0.07448608982406
  H   -2.45465682829258      0.76566281216456      1.67900476992236
  C   -1.13734104891228      2.46236767787752     -0.48274600816287
  C   -0.93931780334813      3.57452639308822      0.54723026843760
  C   0.53018286470168      3.87536931361568      0.81870187672122
  H   -1.48802161854558      3.35477759063465      1.47473555396051
  H   -1.41485398251375      4.48426123201604      0.13421676753669
  C   1.26314327604239      4.24128275139483     -0.46629596912491
  H   1.01291509846176      2.98690877246990      1.26747475346490
  H   0.62486049393686      4.68602152506894      1.55856171360828
  C   -0.38576111134702      2.81545919420083     -1.77193018926110
  H   -2.20632247560301      2.36960398614617     -0.71569680616204
  C   1.07625356911161      3.18218151860859     -1.54412834055060
  H   -0.89605953026156      3.68647441836377     -2.22083980268235
  H   -0.47037869378798      2.00388654028451     -2.51138896028586
  H   1.53417151861014      3.50848792212028     -2.49139627438306
  H   1.68741551126860      2.28147929454888     -1.28328572316730
  H   2.33570326730429      4.39151335238110     -0.26819088046657
  H   0.87189501721733      5.20368679773736     -0.84369870648797
  C   -1.45948015325842     -0.26952234478468     -1.23364306794490
  C   -2.83604856835592     -0.56256394790130     -1.37167966194627
  C   -3.26674027796422     -1.24234905404319     -2.51889173171191
  C   -2.38472220300253     -1.63503293938989     -3.51946797011520
  C   -1.02793239938976     -1.36029859542101     -3.38079559899498
  C   -0.58166187446239     -0.68722087112882     -2.24880072444268
  H   -4.33084449808758     -1.47271838184624     -2.60932466423075
  H   -2.75801357378059     -2.16392534365735     -4.39970069065587
  H   -0.30911355299471     -1.67097598604131     -4.14226231212059
  H   0.48750111212151     -0.47554938418871     -2.13678605392161
  C   -3.88487670975951     -0.27495035019580     -0.35120648165076
  C   -4.54673016455890      0.96154763739717     -0.27958279731793
  C   -5.53172354383532      1.18760545921856      0.69125481850620
  C   -5.88951165435812      0.15367935629555      1.54845333373487
  C   -5.31323234118762     -1.10767866097401      1.44494340050179
  C   -4.32584891185831     -1.32748067976552      0.47666915158153
  H   -6.65705755936319      0.32961651357928      2.30573193181692
  H   -5.63938473389133     -1.90968302428275      2.10533929845138
  H   -6.02821187023669      2.15369036886791      0.77018028071999
  O   -3.72583007294218     -2.51105119735390      0.26099756159298
  O   -4.16335356496179      1.88968081561692     -1.18365912304309
  C   -4.03144774548551     -3.66444655964383      1.03863119701185
  C   -2.82512198294535     -4.57346397421519      0.92347915348421
  C   -5.30838919356686     -4.31507051537918      0.53635751410505
  H   -4.14964065604681     -3.35911390030935      2.09369705783723
  H   -2.65042153316353     -4.83557296796630     -0.13083019865191
  H   -2.98795113788702     -5.49967532730976      1.49315823648848
  H   -1.92065728919463     -4.07944097021609      1.30623272413400
  H   -5.17968824985314     -4.63423378090918     -0.50900636512121
  H   -6.16133588706682     -3.62273506297018      0.57967808675078
  H   -5.55402382325126     -5.20012657255953      1.14189831924287
  C   -4.97540497333491      3.02800942634791     -1.45760496896077
  C   -4.10430888388428      3.98511823652408     -2.24340308090490
  H   -5.25560597982083      3.51188827552573     -0.50453652493956
  C   -6.22459645833355      2.61552000010878     -2.21550241527507
  H   -6.85608946017906      3.49222541188663     -2.42144553568842
  H   -6.82153035299225      1.89053436548862     -1.64406980748115
  H   -5.94501229389847      2.15249060195986     -3.17397621731622
  H   -3.24045486635368      4.31224022387541     -1.64769310597600
  H   -4.68073342910590      4.87534386596214     -2.53274437698832
  H   -3.73130804128593      3.49604798767600     -3.15584704812154
  H   3.95475365640042     -4.73261436694336     -3.72055500419931
  H   5.40297355949838     -3.97782566926344     -4.40571789370646
  H   3.80678447445861     -3.61301175100812     -5.09466224624489
