115
Coordinates from ORCA-job gp_opt
  C   -4.04262555133542      4.12563869698932      0.65350345351580
  C   -3.11642345453171      3.29557010265857      1.53282593326217
  C   -2.61058923189358      2.05624435662478      0.80477750658088
  H   -3.63058549190325      3.00120705868183      2.46174352068972
  H   -2.24950452736060      3.90449806696750      1.84517105902666
  C   -1.91340285339300      2.44382754140228     -0.50159814231209
  H   -3.45529595964450      1.38376399021307      0.57976752855475
  H   -1.92687939992434      1.48517209146557      1.44823445106724
  C   -3.37039116625403      4.48574285265901     -0.66557843756371
  H   -4.36567610763366      5.03791781752268      1.18079441631963
  H   -4.95897815376856      3.54426693490514      0.44383154766273
  C   -2.85926135690980      3.24525637131369     -1.39570513329118
  H   -2.51922828348210      5.16212081587008     -0.46702760395499
  H   -4.06443516639724      5.04266414084998     -1.31597280442352
  H   -2.36339071114683      3.54839508781613     -2.33100394018181
  H   -3.71753759262471      2.61205634510779     -1.67884112802443
  P   -1.11954318643104      0.95561037108120     -1.27836185178284
  H   -1.05246502217903      3.08659953006770     -0.24700198224635
  C   -0.63914716630828      1.51246376139617     -2.99648003480734
  C   0.33398604776802      2.69867528254853     -3.01593768829334
  C   1.77047124191050      2.32971134847849     -2.67382905791653
  H   -0.02351064368275      3.50541104427751     -2.35563794778367
  H   0.30486832439633      3.11430806341175     -4.03956209497615
  C   2.28242651464153      1.16493262440812     -3.50998887230397
  H   1.83354670519347      2.04449540546036     -1.60886385906369
  H   2.42344280264234      3.20798753711732     -2.79728515173292
  C   -0.08944166432799      0.33150934253661     -3.80546489812559
  H   -1.56821504800176      1.85626825303917     -3.47237281756402
  C   1.34265084025857     -0.03061030557341     -3.43539151684354
  H   -0.11538933153930      0.61363888220484     -4.87313790502478
  H   -0.74879379416530     -0.54401300159993     -3.69632436486108
  H   1.69976072895486     -0.84620941623094     -4.08393082693022
  H   1.37847752818370     -0.46396351592864     -2.40980464829580
  H   3.28988711626884      0.87766465931159     -3.17160015820782
  H   2.37591892316298      1.47854817288345     -4.56592056598080
  C   -2.58104509450728     -0.12650812943604     -1.60250237864016
  C   -2.95165844569168     -1.17502548413387     -0.73904596715425
  C   -4.15579630096990     -1.85666246833212     -0.97455301766564
  C   -4.97707715920588     -1.54624871137617     -2.04957090413167
  C   -4.59803842496060     -0.53135536807605     -2.92387035752239
  C   -3.41944719826608      0.16745333216201     -2.69169596695160
  H   -4.43042581067811     -2.66377776268694     -0.29222291966341
  H   -5.90352458091625     -2.10246893607169     -2.21068393260668
  H   -5.22001924567060     -0.27645099652345     -3.78496807095540
  H   -3.15523325093731      0.96387454544376     -3.38642124006095
  C   -2.13337961471523     -1.69522516572222      0.38586202528741
  C   -2.61385724988176     -1.62819812401012      1.70968194423077
  C   -1.97753985608419     -2.34809966146425      2.72630375615097
  C   -0.86311140907394     -3.12614426192583      2.41766360249641
  C   -0.35979769201314     -3.19113378865250      1.12546793470549
  C   -1.00362837181229     -2.47780068095481      0.11069802163714
  H   -0.35703627850819     -3.67742192742250      3.21348552605056
  H   0.52869973397643     -3.78134889347291      0.90608507569034
  H   -2.33567299958314     -2.30321093296344      3.75363398414056
  O   -0.58387576395133     -2.52563541771969     -1.18206425620414
  O   -3.72155241217844     -0.88066101971652      1.88441423682869
  C   -0.41264355686852     -3.81719703261711     -1.77293356228564
  C   0.15755679083388     -3.58442407119572     -3.15323582626559
  C   -1.73210543962205     -4.56674647030875     -1.80300926264109
  H   0.32212691337223     -4.38327427870323     -1.17388891295016
  H   0.34943430737199     -4.54398535390140     -3.65459299150141
  H   1.10186706074724     -3.02733983492912     -3.09507639259069
  H   -0.54942302980707     -3.00638799993788     -3.76762367517194
  H   -1.59525038069892     -5.56421115453923     -2.24647195607282
  H   -2.47326274158827     -4.01290936074889     -2.39952773399645
  H   -2.13432982198836     -4.69909786958775     -0.78779860859339
  C   -4.34573950972680     -0.77906348272702      3.15782583347678
  C   -3.60550333049453      0.19940610012882      4.05273053921388
  H   -4.35453172298444     -1.78162454667327      3.62421885472384
  C   -5.77366876198200     -0.35430651810150      2.88468107048192
  H   -5.78715764973772      0.62379540695113      2.38018177076238
  H   -6.33828471917148     -0.26986838917551      3.82440188278396
  H   -6.27743956294680     -1.08288721984179      2.23383831670724
  H   -3.67458817708701      1.21664942144308      3.64167520225516
  H   -2.53867660306445     -0.04846064608806      4.13634299706661
  H   -4.04334209795914      0.20300397374650      5.06208725926672
  Pd  0.84552148313317      0.17187696394867     -0.34211628668087
  C   0.57820973223081      1.00782059857879      1.41585870785224
  C   0.36904510143480      0.18261129040345      2.52183873352919
  C   0.64716176457166      2.39201870107652      1.60282489539188
  C   0.20312676672612      0.73840612484993      3.79229261923553
  C   0.25001370599627      2.11984725440997      3.97438345169490
  C   0.47976375129996      2.94430262480640      2.87389159923899
  H   0.83247771193264      3.05876946802224      0.75684663312706
  H   0.33561430342190     -0.89990251371812      2.39603699445055
  H   0.04460280702989      0.07698467394731      4.64892938190282
  H   0.12076871019573      2.55161433511273      4.96953275326651
  H   0.53517903387747      4.02899042475553      3.00206076404702
  N   2.72239427032833     -0.46384680877301      0.07433861224186
  C   2.80356801492770     -1.80890217738059      0.46278855834237
  C   2.93326133008370     -2.17541550524612      1.81508445341380
  C   2.78828224602530     -2.82705204793231     -0.50246365336659
  C   3.02718937464772     -3.51393777737823      2.18271858243557
  C   3.00771524005226     -4.51856632463857      1.21159774515817
  C   2.89225419905332     -4.16740583942204     -0.13382051036487
  H   2.89885348565196     -4.94321903599318     -0.90448158463285
  H   2.72467470729702     -2.53643416130004     -1.55275919653272
  H   3.12327612309149     -3.77951004200405      3.23883613970726
  H   3.09217513513609     -5.56828249013866      1.50232680200458
  H   2.96439581807218     -1.38231328159638      2.56511084446985
  C   3.85463456563897      0.30626457887829      0.25234109983498
  C   3.77965942118785      1.71622029426292      0.27029503726065
  C   4.92720907826709      2.49969515222930      0.36750152803119
  C   5.13619436107682     -0.28084383475375      0.36171545153559
  C   6.27126960544104      0.51926795422915      0.45322207209661
  C   6.19353636364516      1.90650736740957      0.45273032112638
  H   2.79491178278838      2.17186232001368      0.24092244764131
  H   5.23680700362834     -1.36628807670165      0.34880963154415
  H   7.25136581234060      0.03901784461386      0.52315946997784
  C   3.66610432187052      4.50128920174254      0.40933298686324
  H   7.07567994634649      2.54327654367819      0.52825190699092
  O   4.90278116299890      3.85631109067294      0.39406128262318
  H   3.07682686347190      4.29659278765989     -0.50394215121695
  H   3.87033197670177      5.57933420304175      0.45944946933220
  H   3.05964646886745      4.21002598855780      1.28577552190772
