107
Coordinates from ORCA-job gp_opt
  C   -2.26064872312329      1.80294719444142      3.49078172148735
  C   -1.41119480347722      0.54800272234930      3.23641803292138
  C   -1.38603934589350      3.05442116858522      3.61109157304179
  H   -0.65481105979380      2.95885411312198      4.43116379691906
  H   -2.00077092520476      3.94527732174920      3.82044605493111
  H   -0.83004273860074      3.23490081579866      2.67754030669128
  C   -3.02919015142983      1.61336041916685      4.80644193281161
  H   -2.33944709338189      1.47220585921778      5.65486040154320
  H   -3.68218497413572      0.72779291711365      4.75452031413408
  H   -3.66404369740220      2.48769423160165      5.03003704688720
  C   -3.27062968875638      2.01363457429115      2.36013176702787
  H   -3.91313855776700      1.12866590851563      2.23413877624968
  H   -2.76145106152625      2.16978245090954      1.39903216490949
  H   -3.91527578679445      2.88297950121490      2.57175457813318
  Pd  -0.13980497178883      0.64160450275311      1.61068624201869
  H   -2.08451435738634     -0.31991605417087      3.13751254310013
  H   -0.76824022163232      0.35253809732071      4.11899286330955
  N   -1.63664069166726     -0.03242124052796      0.57879269683104
  C   -1.84259996119910     -1.24235552197122      0.24154591153157
  C   -3.05599349453481     -1.52490112095496     -0.59841528494125
  C   -3.67187330078127     -0.47600643818211     -1.29865308024453
  C   -4.80108266778005     -0.69499580303203     -2.07414745460332
  C   -3.64295067242942     -2.79292113960120     -0.68124322317264
  C   -4.78282948049994     -3.00764121562280     -1.45581695304827
  C   -5.37801602216931     -1.96976415559487     -2.17632855680054
  H   -3.21266908419491     -3.62790894032052     -0.12453755107197
  H   -5.22054626888690     -4.00930584339720     -1.49747623958752
  H   -3.24409628502393      0.52299187707875     -1.19919965125905
  H   -5.25236229463374      0.14301142688891     -2.61422986057810
  C   -6.58767669334193     -2.20004841909848     -3.03452313115900
  H   -6.98482215405272     -3.21728085208700     -2.90892669713330
  H   -6.34943855999395     -2.06440925682239     -4.10251393232211
  H   -7.39304205248616     -1.48871697011777     -2.79257653710145
  C   -0.95249945242184     -2.40557769286224      0.56590216334394
  C   -0.61292946027277     -3.34437674554992     -0.41863126588671
  C   0.24063051841076     -4.40704647616946     -0.13472328457877
  C   0.78702389715659     -4.57725476681151      1.14302331285675
  C   0.44567067467059     -3.63913632374349      2.12375701952968
  C   -0.40244169712343     -2.57195182679751      1.84175100023402
  H   -0.65110493937745     -1.85060033450476      2.62190276909029
  H   -1.02653128452918     -3.24097141423855     -1.42465678697222
  H   0.49054294348087     -5.12039603121203     -0.92564086752832
  C   1.73668063140107     -5.70189469271563      1.43480944899879
  H   0.84823871182288     -3.75031810270840      3.13488902767851
  H   2.76093209775847     -5.44452031549614      1.11395863445290
  H   1.45221692548101     -6.62079797181372      0.90091435617405
  H   1.77678033082538     -5.92857313950263      2.50987173071604
  P   1.41114519139775      1.09491879084915     -0.15093855289552
  C   2.72520918978055     -0.14260246862039     -0.68230616159918
  C   4.04045241755604      0.49870859457007     -1.15510006045426
  C   3.23771085483377     -2.16635639546043     -2.08326891009566
  C   2.19642782422792     -1.08278981871842     -1.77519672843009
  H   1.25083732843605     -1.54420425506694     -1.44615811964008
  H   1.98537330779895     -0.51625495765399     -2.69562663585115
  C   0.66147949073148      2.03609505158468     -1.58299528221852
  C   -0.38042301634046      1.14532936019154     -2.28663150513929
  C   -1.13005898843691      1.95231426957209     -3.35061769223773
  H   -1.07919981724454      0.74619826831735     -1.53640006214496
  H   0.10553396182633      0.28169290532272     -2.76432800126508
  C   1.64768032025027      2.58054178070462     -2.62432824814922
  C   0.88941287918477      3.39037946107417     -3.68500410289773
  H   2.18001775272086      1.74994086473144     -3.11447206802861
  H   2.41103919822673      3.21591266053193     -2.14369498704202
  C   -0.08859285693379      3.21707975870515     -0.93042177926210
  C   5.07474759126515     -0.58747238205756     -1.47220072087674
  H   4.43626365297786      1.16117897650951     -0.36888365779927
  H   3.87102458359759      1.11981016000190     -2.04721949941989
  C   5.35881737149594     -1.40170673342863     -0.20807391208928
  C   4.06257787271765     -2.05821487651558      0.27074097327150
  H   5.77052563606981     -0.74688466651798      0.57920866569037
  H   6.12053334533754     -2.17221533856169     -0.41606101659611
  C   3.52333284629687     -2.98240736595087     -0.82209990076202
  H   2.59872597847901     -3.46660557882375     -0.47628143485587
  H   4.25405589535271     -3.77961436135368     -1.04237239090786
  C   3.01581201690046     -0.98274771096975      0.57813273400268
  H   4.25176998085577     -2.64046634180852      1.18817200794112
  H   2.08180238023385     -1.44909782664105      0.93283154216235
  H   3.37586508304539     -0.32581116430205      1.38930474301567
  C   4.53036995976009     -1.50642449787163     -2.56896064302694
  H   6.00304283337877     -0.10364442907145     -1.81962648088471
  H   5.27781826803846     -2.27675846458056     -2.82347426568112
  H   4.34174934026762     -0.92674200754855     -3.48888989057496
  H   2.83758417078070     -2.82757326342764     -2.86977780504831
  C   -1.85944072907830      3.12197289224629     -2.68897924864433
  C   0.16362887593836      4.56133750775950     -3.01811473910811
  C   -0.83803889984324      4.02333360981261     -1.99306111820430
  H   -0.35667760882471      5.16663360369961     -3.77971049256857
  H   0.89184825565276      5.22616082554395     -2.52247715806680
  H   -2.59075593005209      2.74588921537204     -1.95442342318829
  H   -2.42409449898464      3.69642474888580     -3.44318589102360
  H   -0.79034606788616      2.82814710821740     -0.17231379483617
  H   0.62379849830111      3.87200851839703     -0.40170253548665
  H   -1.35611724288865      4.86345014661827     -1.50171383707502
  C   -0.13337882225373      2.48747772259879     -4.38195212335448
  H   -1.86059495885887      1.28900132522346     -3.84228269991321
  H   -0.66297101924565      3.05428800385107     -5.16654544831315
  H   0.37930055048188      1.64917704174644     -4.88436794170845
  H   1.61244413551605      3.77301393380380     -4.42475849664455
  C   2.42936870106266      2.34587179635343      0.69282861615237
  C   2.37898556434621      2.44949933888558      2.02358304947244
  O   1.51621174469511      1.71266971451334      2.76985569466914
  C   1.90289908175008      1.45141421186718      4.10572024698294
  H   1.03891456512631      1.00396167499443      4.60710983055488
  H   2.17481402208715      2.39027973781059      4.61463709215401
  H   2.75275271746165      0.75095691011840      4.13089963291595
  H   3.11203839208478      3.01213588462757      0.15942707251302
  H   2.99984432363183      3.14266172604717      2.60474685864640
