105
Coordinates from ORCA-job gp_opt
  C   1.01812285247997     -1.89950105645947     -3.51686211463561
  C   0.31888746537115     -1.48158997278487     -2.20607857945883
  C   0.46751649922244      0.02981041778019     -2.08494410007472
  C   -1.15603082446378     -1.63181669715215     -2.57804158961367
  H   0.67908819147767     -2.02309466323778     -1.32509938877411
  C   0.04853803465643     -1.38866074038132     -4.61107707705241
  H   1.13415367355661     -2.99412906640002     -3.56842251539809
  H   2.02573917763946     -1.46423504463979     -3.59197530193570
  C   -1.05682878652546     -0.70420174982330     -3.79693454990441
  H   -0.36308627935437     -2.22287695258569     -5.20059551685642
  H   0.52577813239242     -0.69406056809516     -5.31887715998054
  C   -0.47930691782214      0.59067237856027     -3.18134602931214
  C   -1.55936232750673      1.56592507666675     -2.73158808211404
  H   0.13513375690772      1.11200467392787     -3.93647394667850
  H   1.51112111198666      0.33752387482762     -2.24028421423149
  Pd  0.17255687594333      0.81792653712543     -0.23057174018581
  H   -1.82700805972284     -1.25390002038225     -1.79432093964062
  H   -1.45016728469458     -2.66216427130548     -2.83859379220817
  H   -1.98554056302173     -0.53923467567119     -4.36456178447856
  H   -2.22691770806320      1.11824523683351     -1.98329103057693
  H   -2.17114013721681      1.89178237960493     -3.58917123907976
  H   -1.11582309621041      2.45989205081515     -2.27041186676580
  N   1.36743819994441      2.34102848531377     -0.67434476782049
  C   2.71977654614329      2.27397405400351     -0.86766037153056
  H   0.97307275355372      3.17742237163004     -1.09702970839657
  C   3.46437194997958      3.34255526122246     -1.41834111745193
  C   4.84477603010763      3.27053027878834     -1.55617314829307
  C   3.45536113234513      1.12183548443640     -0.49864635345223
  C   4.83397955970069      1.06424493409240     -0.64915520220939
  C   5.57015856938565      2.13535642475118     -1.17232284110335
  C   7.06630856932150      2.07949859188477     -1.28973715882297
  H   7.41801153031328      1.05797773469823     -1.50211391253644
  H   7.56394075175045      2.40436146321310     -0.35868531499648
  H   7.43291417078018      2.73385964637150     -2.09531601072922
  H   5.37860674466102      4.12612400366023     -1.98258045977005
  H   2.93461458976506      4.24633363535580     -1.73557422316556
  H   2.91288237438399      0.26610629826387     -0.08776608934742
  H   5.35606995967650      0.14962713923286     -0.34852759874027
  C   -2.77246103663296     -1.43719097714118      1.88794554479562
  C   -1.48633599403140     -2.12208473058748      2.33356684393630
  N   -0.51182883035675     -1.62156314580555      1.36477509748276
  H   -1.55934655237548     -3.21688849634648      2.30491858277159
  H   -1.17975610507233     -1.82967810929599      3.35320587089810
  N   -2.27757529038333     -0.40929092936946      0.97006605087859
  H   -3.33524095340468     -0.98318469557432      2.71678071667761
  H   -3.44722420297693     -2.13457037006625      1.36781664200968
  C   -0.96755662159995     -0.55569682262890      0.66588404728343
  C   -3.10677305215728      0.66754502155320      0.53946872320656
  C   -2.83593741669225      1.97641620259761      1.00284228736385
  C   -3.67660441670208      3.00817877984172      0.58274557844955
  C   -4.76707877558379      2.76147321013986     -0.24498710901517
  C   -4.19846667264063      0.40427964764335     -0.31037125949076
  C   -5.02567458941798      1.47023060422632     -0.67975691879611
  C   -4.50574457567574     -0.98369311884745     -0.83930058389205
  H   -5.87754145340169      1.28398179047463     -1.33732666441466
  C   -1.70458313890570      2.26635935701095      1.97172093814586
  H   -3.47949315355863      4.02766197977238      0.91629811051615
  H   -5.41511202213844      3.58463490754513     -0.55460815799272
  C   -4.71375268901414     -0.99632593684906     -2.35335871906740
  C   -5.71922490413632     -1.58639465634909     -0.12686313349344
  H   -3.62899164814194     -1.61611750977343     -0.63236686890385
  H   -6.62565726179477     -0.99897813655492     -0.34262766506453
  H   -5.59403410840989     -1.59962985151664      0.96613890920223
  H   -5.90039027963662     -2.61850004598273     -0.46574422957278
  H   -3.87124882921034     -0.52810685023734     -2.87992236108958
  H   -5.63280783918328     -0.46348755442820     -2.64187766740999
  H   -4.80906132072608     -2.03154927825698     -2.71538473369770
  C   -1.15151556705066      3.68154794183494      1.87789481739954
  H   -0.86784298918954      1.59369662320510      1.70673772766279
  C   -2.11589083459161      1.92656383604583      3.40477810058345
  H   -2.42900417799457      0.87688479621924      3.50256703415611
  H   -2.95960695550430      2.55713758986153      3.72761114018150
  H   -1.27884835896296      2.09459403211244      4.09991205697535
  H   -1.87376339221613      4.43569897066187      2.22754435348365
  H   -0.85677609939431      3.92564779878991      0.84722797073915
  H   -0.25387868860888      3.77069744433629      2.50677503736674
  C   0.87032903993181     -1.96321292208690      1.47201189122032
  C   1.33350261328736     -3.15549888950819      0.87727450580379
  C   2.70438385774276     -3.42181028441874      0.91901705534984
  C   3.58557568593076     -2.55033168628568      1.54970010225828
  C   1.73648299509243     -1.11627177618279      2.19371949374299
  C   3.10048550383636     -1.42310098222144      2.20042103497522
  H   3.08954708650839     -4.32672036781783      0.44501328618838
  H   4.65690137292414     -2.76428069452769      1.55331805460425
  C   0.37703126160789     -4.17358747370188      0.28528858032757
  C   1.23051244295457      0.02745048512955      3.05262021039766
  H   3.79367681885319     -0.76452205871477      2.72803138430853
  C   1.31402328012831     -0.36781429304563      4.53042118451798
  H   0.16715181488025      0.17945212631955      2.81747241334542
  C   1.94594352633809      1.35160608745794      2.79948549025248
  H   3.02361810532257      1.28129249319035      3.01077689644891
  H   1.53503942689203      2.13294687642814      3.45772847711986
  H   1.83156761835387      1.68928614518093      1.75797309392590
  H   2.36130893511465     -0.49755055138939      4.84567650451686
  H   0.79114186462915     -1.31596890740318      4.73063972369664
  H   0.86671828378056      0.41269203315633      5.16611510107076
  C   0.06830795951267     -5.25793825017771      1.32510522734695
  C   0.88364475987305     -4.82684348192549     -0.99767635621318
  H   -0.55783943529751     -3.64090808572290      0.04525283404061
  H   -0.69638588383632     -5.95676296307506      0.95069333495708
  H   -0.28608756425990     -4.83693850291512      2.27730675942240
  H   0.97609670155148     -5.83999160011697      1.54965178093835
  H   1.74832173828922     -5.48071542890719     -0.80547141724044
  H   1.18289344131522     -4.08142242061653     -1.74547149544929
  H   0.09569332737341     -5.45577489850430     -1.43935442481720
