109
Coordinates from ORCA-job gp_opt
  C   1.58906169278513     -2.04164533208011     -3.75040734952611
  C   0.83446779236143     -0.74911005132737     -3.40152399401383
  C   2.72849547500150     -2.28729708755622     -2.75871960767078
  H   2.34388593855210     -2.39396687544098     -1.73495815647850
  H   3.42688530631733     -1.43619687411815     -2.74325271302715
  H   3.29456369662892     -3.19424690648974     -3.02989193718957
  C   2.18336577015480     -1.89619434866008     -5.15875886526735
  H   2.75080825532891     -2.79651383267146     -5.45028185490287
  H   2.86836684490585     -1.03505480663642     -5.20766256045508
  H   1.39258989042056     -1.73848022945932     -5.91078462479144
  C   0.65277257860038     -3.25414900423352     -3.74084964632644
  H   -0.18240220386624     -3.12128601027464     -4.44850450023673
  H   0.22675315749272     -3.41557898611688     -2.73790826259393
  H   1.19139795024362     -4.17004675106604     -4.03520868157964
  Pd  -0.22786927280001     -0.79641294579307     -1.62938000238008
  H   0.09842608558929     -0.52513601967614     -4.20086733563679
  H   1.55131202574799      0.08864920989398     -3.38697020134831
  N   1.41188452620860     -0.19201118151482     -0.79586763424951
  C   1.73023144225970      1.00182532743166     -0.49201096478462
  C   3.07636430900482      1.20773675105948      0.14079503658536
  C   3.75724735521947      2.43525035967620      0.10373045313110
  C   5.03116221480020      2.57019409133314      0.63921006997413
  C   3.73618519071144      0.12213512558718      0.72659163255659
  C   5.00935931837749      0.24141873635691      1.27472503851626
  C   5.66948867466022      1.47597332314428      1.23455101271965
  H   3.22914722153627     -0.84418042620254      0.71861260135312
  H   5.48044764813865     -0.63465526021917      1.72185332640872
  H   3.28961444809356      3.30023527196352     -0.37134601505735
  H   5.56450298614577      3.52210719004720      0.60081120456541
  O   6.90707704617112      1.69617921864588      1.73040324770955
  C   7.60405351096957      0.62259368631382      2.29239509091199
  C   0.86739042028510      2.21221312772248     -0.67468999168171
  C   0.12233348525506      2.41581137385485     -1.84623359005936
  C   -0.70482064266958      3.51879092120016     -1.99095276254074
  C   -0.82551888168126      4.45588169652190     -0.95563775613015
  C   -0.09805371783257      4.26752234909774      0.22332408571529
  C   0.73953925957758      3.15792635871712      0.34708165442507
  H   1.30408758271680      3.02504177546577      1.27321571642001
  H   0.20126210928780      1.68618243200419     -2.65470533201554
  H   -1.27659084741792      3.68439958711205     -2.90626103232221
  O   -1.67416022580257      5.48411331054278     -1.17265160940523
  H   -0.17912812060024      4.96944652051679      1.05371115089661
  C   -1.82889861961724      6.44841874597960     -0.17106945466408
  P   -1.54983313053794     -1.18797436148669      0.31382496699807
  C   -0.65272922646532     -2.12297824000204      1.66203247500064
  C   -1.51265510229041     -2.61131592024622      2.83494340813905
  C   1.34798859331573     -2.04403785994754      3.18931066232625
  C   0.49225295806961     -1.24499800695298      2.20243394806792
  H   1.10302696778664     -0.89105336011908      1.35872454645750
  H   0.09087603564234     -0.35325541898959      2.70534049676430
  C   -2.75572024806826      0.09886912636027      0.97136027067718
  C   -4.01961258150976     -0.48560890619173      1.62441621243323
  C   -4.97680901402313      0.64289007998303      2.02794156629888
  H   -3.76209436425260     -1.08539292012273      2.51041222303499
  H   -4.52895797513525     -1.15787189175788      0.91541678298949
  C   -3.18254912105519      0.90654426150238     -0.27227688684622
  C   -4.15015345945361      2.02604204289940      0.12204462348639
  H   -3.66683526381158      0.23352597678209     -1.00100915253363
  H   -2.29078347277767      1.32532498641864     -0.76699732216542
  C   -2.07135331519086      1.05678965165482      1.95825663071678
  C   -0.64698767533686     -3.41466695367807      3.81555932611474
  H   -2.34608959854332     -3.23750561603581      2.47351523219422
  H   -1.95671740521835     -1.75329649369894      3.36405691887821
  C   -0.03953793107560     -4.62304237304898      3.09865255445016
  C   0.83646240874386     -4.14123333421295      1.93951965585889
  H   -0.83996850897371     -5.28308823017399      2.72190942430749
  H   0.56015544106707     -5.22002092417142      3.80664980724389
  C   1.95884121971905     -3.25257417605690      2.47823950044001
  H   2.60632637317513     -2.91960914870151      1.65019653081256
  H   2.59478976434641     -3.82405902191855      3.17592832965509
  C   -0.02045096558836     -3.34111317472371      0.95566098915990
  H   1.26691173991886     -5.00790307712462      1.41104569794636
  H   0.59050986164246     -2.99039658345127      0.10620777133411
  H   -0.80972689862509     -3.98830172986820      0.53824427540234
  C   0.47610906840270     -2.52245410343140      4.35320311918273
  H   -1.28064137931055     -3.75845771320395      4.65033004740338
  H   1.08487602947244     -3.08198199152833      5.08382772957962
  H   0.04946119412837     -1.65666758314054      4.88806998110952
  H   2.15240044730691     -1.39016540441759      3.56487787146815
  C   -4.27608275126448      1.57925081494918      3.01590752510723
  C   -3.45535217807073      2.96662895588018      1.10683833836420
  C   -3.03653112275082      2.18209580965639      2.35093036743241
  H   -4.13386159277646      3.79043492359340      1.38855818667965
  H   -2.57192728517737      3.41754251451698      0.63260716066123
  H   -3.99014189768834      1.02423190658671      3.92599670322149
  H   -4.96470751409973      2.38071544094761      3.33303454845221
  H   -1.76938103558295      0.51226082129950      2.86678595883952
  H   -1.15795491503557      1.47720124646422      1.50532163206218
  H   -2.52289225203678      2.85483567358469      3.05805880012456
  C   -5.39377434540992      1.42552963356785      0.78053908917587
  H   -5.86742152430946      0.19949695563056      2.50416345562046
  H   -6.10407679295056      2.22451455080195      1.05348367275045
  H   -5.91654968975932      0.75828829599383      0.07384372498092
  H   -4.43564647641258      2.58487266573582     -0.78447083456297
  C   -2.69691297203314     -2.42092091460483     -0.38060742671123
  C   -2.81828248501711     -2.53257195050408     -1.70648116424206
  O   -2.04006722226542     -1.82060786325626     -2.56306232983473
  C   -2.59988047424498     -1.53673414378517     -3.83177022669719
  H   -2.94468591980156     -2.46616461155719     -4.31317604759407
  H   -1.80675298522197     -1.08626816968826     -4.43695706556875
  H   -3.43973233059772     -0.83064433890402     -3.73337163745133
  H   -3.32256466240862     -3.06529401067312      0.24231328240043
  H   -3.52532690783061     -3.21183284265995     -2.19876005723207
  H   8.58089823750282      1.01031663520695      2.60936845940342
  H   7.76414997784049     -0.19217785399206      1.56358292844637
  H   7.08386023282950      0.20691972779288      3.17421007081327
  H   -2.54479038192031      7.18786252593831     -0.55216507313073
  H   -0.87714638395521      6.95917419469204      0.05965954830362
  H   -2.23100199850736      6.01236669343651      0.76095222764512
