78
Coordinates from ORCA-job gp_opt
  C   0.33465326603982      1.15600019707431      2.76233534303357
  C   1.80284450234140      1.26089208104209      2.37012975845997
  P   2.18848802396262     -0.01328455464752      1.07333738925022
  H   2.45864212518672      1.14289852940029      3.24651971357746
  H   2.00821544686602      2.24705086232305      1.92112225740846
  P   -0.68725839347647      1.21643943347135      1.21803650449216
  H   0.03291673411876      1.95653978312254      3.45552597899965
  H   0.13736314002761      0.19005236047712      3.25481985431509
  C   -2.39132059965610      0.82148252045385      1.69974338559849
  C   -3.46769928093568      1.43988049890283      1.05205909972704
  C   -4.76659240003433      0.98599901975039      1.26383167465543
  C   -5.00451371878286     -0.07878607538253      2.13067556781459
  C   -3.93743376825344     -0.69559392155660      2.78232913480247
  C   -2.63498731346480     -0.25662868640789      2.56037042024038
  H   -1.80560144744709     -0.77804618751752      3.04468268349912
  H   -3.28803273738456      2.25921155474784      0.35391966667141
  H   -5.59521623148690      1.45407295058926      0.72811869026841
  H   -6.02411974205441     -0.43727641195118      2.28946384662874
  H   -4.11745968674162     -1.53591463877865      3.45677368306796
  C   3.83404076134660      0.45100836079821      0.44678064365589
  C   4.65498998476275      1.39727908025637      1.07340971800249
  C   5.90710173873053      1.69887992393434      0.53949991538860
  C   6.34632966170807      1.05832631989930     -0.61795564855114
  C   5.52889647846938      0.11833495251684     -1.24573973357308
  C   4.27492815588118     -0.18522491319675     -0.72254444163399
  H   3.60682117721413     -0.90137179190552     -1.21939422641165
  H   7.32841988376325      1.29600909886248     -1.03405043353121
  H   5.86623654812209     -0.38084226869805     -2.15742055849332
  H   4.32665634951456      1.90854888914645      1.98078819880982
  H   6.54206678902323      2.43910744219301      1.03218456458659
  Pd  0.29315763143025     -0.15770870923761     -0.29732924256652
  C   2.46668224055335     -1.52821870707774      2.05639243606644
  C   3.51456042247312     -1.61573377678670      2.98173669031880
  C   3.67702746628871     -2.76640569457846      3.74703714940873
  C   2.79983410226529     -3.84105777927505      3.58726680269830
  C   1.76510069973101     -3.76452228755151      2.65791727240411
  C   1.59686310259844     -2.61155341070857      1.89098228675603
  H   4.21744626330290     -0.78500988365413      3.09323761660417
  H   4.49695850002933     -2.83042011345553      4.46642784048800
  H   2.93230833249946     -4.74593534207970      4.18533437972198
  H   1.08700457094616     -4.60955294340284      2.51848330217900
  H   0.80051922854516     -2.55123984496978      1.14240904703770
  C   -0.66024461521692      2.98214004667981      0.77576075322106
  C   -1.31975456619975      3.95046949188208      1.54432747753231
  C   -1.21880999991296      5.29681559852433      1.20521558304042
  C   -0.45735146140114      5.68503777499777      0.10123136690365
  C   0.20217803938550      4.72638683457560     -0.66529024473440
  C   0.09957038052016      3.37660593677116     -0.33143580195182
  H   0.60799876213144      2.61102293389603     -0.92697781125951
  H   -1.92286803826491      3.64738313446608      2.40468145832766
  H   -1.73774929482155      6.04886376273597      1.80418382381604
  H   -0.38088484577748      6.74248122650012     -0.16291501126716
  H   0.79653892583832      5.02723268444208     -1.53089482755996
  S   1.25954790111839     -1.81877647767014     -1.65944827732709
  C   -1.51471517189179     -0.20765800957308     -1.21973858384979
  C   -2.04067280327037      0.84853166258800     -1.97594214799599
  C   -3.36100224292777      0.84097028841304     -2.43306971090149
  C   -2.36731713066839     -1.28686815199502     -0.94208726803111
  C   -3.69087228024400     -1.30846080491708     -1.37652186182142
  C   -4.18452376104487     -0.23348858017671     -2.11337191844687
  H   -3.75691931943134      1.67298198010453     -3.01907954160495
  Cl  -5.85296170385615     -0.22158817997587     -2.60993978350205
  H   -1.42412495159337      1.71919897103018     -2.21760405142130
  H   -1.99258914816395     -2.13942124446896     -0.36957058155341
  H   -4.34608694530068     -2.14929518792971     -1.14099694462470
  C   0.99099437508292     -1.48054062673696     -3.46160363270575
  C   1.14524560995962      0.00978483219394     -3.74642634284962
  H   2.12589721251923      0.37545613280098     -3.40582305644691
  H   0.36487979491283      0.58334229233567     -3.22740174504568
  H   1.05464724437917      0.20681049204984     -4.82929165941490
  C   2.09247224906943     -2.26193078006193     -4.17896998513092
  H   2.02920386966178     -3.33585828181064     -3.94634697227895
  H   3.09020613154046     -1.90729118106543     -3.87872752861814
  H   1.99384159958843     -2.14121455032978     -5.27159598587431
  C   -0.37460858771318     -1.98122765640813     -3.92201975592357
  H   -1.18819305354891     -1.44243473103030     -3.42077810353665
  H   -0.48957033084196     -3.05274357880458     -3.70106725861303
  H   -0.48443125643985     -1.83829706467505     -5.01153910682615
