81
Coordinates from ORCA-job gp_opt
  C   0.04464316051284      0.56458865092442      2.93284386134245
  C   -1.40024706429111      0.90622825629787      2.59748174602181
  P   -1.94679496144991     -0.11292428453429      1.14247410782470
  H   -1.48284251542274      1.96461285902582      2.29959186981700
  H   -2.06093805936576      0.74335171908352      3.46298328487281
  P   1.06793977013607      0.72966946049435      1.39628911826143
  H   0.11492596494792     -0.48671939986575      3.25755593067663
  H   0.44580084580019      1.20069928283129      3.73765387087555
  C   1.19360615042026      2.53558025365407      1.17175954073608
  C   0.36560961864587      3.14620396226928      0.22214981246303
  C   0.38549576097509      4.53090064397279      0.06261290643026
  C   1.23827410337260      5.30946930819852      0.84306816072385
  C   2.07214980089485      4.70451376671260      1.78485340712611
  C   2.05113310770902      3.32225161502197      1.95079745877042
  H   2.71229918270756      2.84728594696537      2.68061266392316
  H   -0.28782450993361      2.52107303768727     -0.39586602924601
  H   -0.26256896812915      5.00032688247886     -0.68096451346661
  H   1.25948564608384      6.39419581515239      0.71318306193899
  H   2.74577133885288      5.31451712207914      2.39143722791592
  C   -2.46885174454877     -1.68845962318187      1.90342155524035
  C   -3.56957656857361     -1.75760435064753      2.76680430729037
  C   -3.91261276784836     -2.96619122514278      3.36513019426941
  C   -3.16407721406025     -4.11448162351775      3.09856506981737
  C   -2.07765286505644     -4.05349070321254      2.22893812647243
  C   -1.72915743232884     -2.84371899250759      1.62863527746309
  H   -0.89243663543145     -2.78991200451367      0.92519954131215
  H   -3.43800614217239     -5.06384679587466      3.56520866985927
  H   -1.50046880700318     -4.95353642924327      2.00534058008853
  H   -4.17010750542828     -0.86381588579689      2.95919035646278
  H   -4.77317060767014     -3.01641529545750      4.03659077875317
  Pd  -0.08207095257430     -0.30856251484826     -0.26512029066127
  C   -3.49069032553173      0.68209632616609      0.58892831835143
  C   -4.16642592433137      1.65100684146310      1.34193916275763
  C   -5.34086658073587      2.22298027589695      0.85423458410303
  C   -5.84771983414792      1.83191498678401     -0.38382998634072
  C   -5.17664802116125      0.86767801147888     -1.13601177091014
  C   -4.00190340318164      0.29363703785471     -0.65763755216458
  H   -3.78407214266463      1.97107763983920      2.31353682270384
  H   -5.86111534665380      2.97931481831745      1.44690351186794
  H   -6.76742193333725      2.28313926061700     -0.76431364433357
  H   -5.56705640270980      0.56210796304792     -2.10991607975693
  H   -3.44631840657253     -0.44886361884920     -1.24607979017968
  C   2.74189487429194      0.19565403496892      1.86062018765797
  C   3.80653501987869      0.51759533913377      1.00612469800022
  C   5.09093022086142      0.06435340635154      1.28676108690111
  C   5.33007038676481     -0.71678610024630      2.41717407574474
  C   4.27651918060129     -1.04393940050604      3.26772827091099
  C   2.98668287317851     -0.59213963601218      2.99158679646377
  H   2.17495970598039     -0.86475333486994      3.66839701898638
  H   3.62617673001120      1.10798104601945      0.10520005695386
  H   5.90717644931652      0.31461587253350      0.60552921894245
  H   6.33934430571670     -1.07529161023930      2.63302838632378
  H   4.45551488281555     -1.65676841917370      4.15427796347205
  S   -1.28652144700889     -1.66229013701896     -1.77208328632205
  C   1.64895991088583     -0.37070020798377     -1.31985892913603
  C   2.44329347857207     -1.52519733683585     -1.28965476219809
  C   3.67810402368043     -1.57317739971068     -1.93295497052736
  C   2.15229777936416      0.73554472877001     -2.01674288167836
  C   3.38684529762202      0.68383092557322     -2.67013494254680
  C   4.17522801257573     -0.47023751167652     -2.63922512881957
  H   4.27189511139888     -2.49178109603766     -1.88719518596318
  C   5.49301031239157     -0.53906985335349     -3.35686641983034
  H   2.08715193809818     -2.41319210643492     -0.76055367419547
  H   1.58635452723227      1.67123014384426     -2.05420190678374
  H   3.74645156470724      1.56567842094255     -3.21025489556025
  C   -1.06432874920360     -1.17967008026389     -3.54754607156871
  C   -2.25603738089795     -1.80570286463288     -4.27397760532501
  H   -2.19785782308680     -1.58920338693989     -5.35471463278076
  H   -3.20848220186517     -1.40827435032441     -3.89131197599528
  H   -2.26759379770966     -2.89848776079884     -4.14336424049152
  C   -1.11148381842172      0.33781784405528     -3.69379997073853
  H   -2.04530749991100      0.74526946642963     -3.27733419106697
  H   -1.05197667464954      0.62241431763450     -4.75929453993278
  H   -0.26731778613668      0.80442081812092     -3.16812511246647
  C   0.23365737036138     -1.73957216390076     -4.12130303888722
  H   0.27515701671232     -2.83129984619745     -3.99248580750847
  H   1.11149252193812     -1.30638474999886     -3.62672070398351
  H   0.29854091563320     -1.51546467261005     -5.20095626541591
  H   6.24014354732495     -1.10196245263294     -2.77639700177235
  H   5.89919197513579      0.46414751106498     -3.55309475805389
  H   5.39198955199693     -1.04732540936455     -4.33072261148217
