80
Coordinates from ORCA-job gp_opt
  C   -0.18838472334940      0.94811038889860     -2.78600791614442
  C   1.29272297497491      1.20076967106227     -2.53511561500649
  P   1.90216127108160      0.05930590728606     -1.19941508112393
  H   1.44758880593230      2.22950133911230     -2.16888454157342
  H   1.87993277480651      1.07905001111007     -3.45856238447238
  P   -1.08061984816254      1.02829932424636     -1.16265736655043
  H   -0.33984741212223     -0.06218352961805     -3.19922805557314
  H   -0.61544415810865      1.67144158074878     -3.49805985148256
  C   -1.16121300958263      2.81695535059342     -0.83260519479776
  C   -0.34740864111924      3.34229298201780      0.17745726317129
  C   -0.32270266105252      4.71619390668663      0.41330797288202
  C   -1.11522774517238      5.56806831844167     -0.35347518639771
  C   -1.93229118230995      5.04872647657251     -1.35933879440445
  C   -1.95499980145051      3.67795993100318     -1.60152323368683
  H   -2.59954158060692      3.27172658585411     -2.38595135865933
  H   0.26410911455857      2.65841449805374      0.77520456256504
  H   0.31542387824226      5.11979073493681      1.20263494172504
  H   -1.09951194237381      6.64443395520261     -0.16596316608184
  H   -2.55563397004746      5.71722535309214     -1.95801481674999
  C   2.28172594551421     -1.47939426343967     -2.10892857779194
  C   3.28645929834945     -1.52511867036504     -3.08381800840472
  C   3.52556377547611     -2.70177359596707     -3.78710929604223
  C   2.76833848613328     -3.84320210341014     -3.51593634530299
  C   1.77702084487918     -3.80639113857351     -2.53807541711411
  C   1.53264068497556     -2.62833052394645     -1.83225813307537
  H   0.77403176814354     -2.59681039909419     -1.04372630637940
  H   2.96137038168701     -4.76827749552259     -4.06468786222596
  H   1.19474947746084     -4.70250600681502     -2.31144515265986
  H   3.89662909870811     -0.63930951115820     -3.28249464613093
  H   4.31238350684151     -2.73306683739583     -4.54469951303287
  Pd  0.13290959161586     -0.17482533959014      0.32216682281547
  C   3.52444040824692      0.73977173071035     -0.72514024624564
  C   4.08220238968793      0.28135680378375      0.47676005955461
  C   5.32139319367103      0.76089342269498      0.89350486050505
  C   6.00965493627607      1.69907334963695      0.12428025079954
  C   5.45459903795569      2.16195026879476     -1.06768225865405
  C   4.21548177202825      1.68541027564401     -1.49362084190607
  H   3.51654168743635     -0.44236185553007      1.07944955508040
  H   5.74942108494505      0.40140127696653      1.83253123300573
  H   6.98060340256245      2.07513202515030      0.45617653743102
  H   5.98782236246591      2.90001438415586     -1.67184000798913
  H   3.79408708944594      2.06153476659226     -2.42859501669769
  C   -2.77688383001175      0.46677923459525     -1.46368796625090
  C   -3.84031428235926      1.03605937732846     -0.75431603307791
  C   -5.10206204345450      0.44963336767798     -0.79840384230100
  C   -5.31505035632531     -0.70363474301974     -1.55016404473616
  C   -4.26063712773000     -1.27084887227347     -2.26414069915926
  C   -2.99450919824530     -0.69503912765509     -2.21534873920047
  H   -2.16756309758182     -1.17675903823381     -2.74314307271376
  H   -3.67241989010003      1.91661185427717     -0.13178141313706
  H   -5.91876145343144      0.88851052290569     -0.22142790412276
  H   -6.30175691101807     -1.17144966487203     -1.56849625943107
  H   -4.41988294578230     -2.17982222627746     -2.84883515464937
  S   1.36063928144803     -1.67517633708602      1.66261633620458
  C   -1.59536913087503     -0.31657976712534      1.38187156037729
  C   -2.11192989633994      0.73025332740313      2.16054260243074
  C   -3.36602923344350      0.60030395950095      2.76192477871800
  C   -2.37190385643285     -1.46347995805123      1.20619757662225
  C   -3.64586681330254     -1.59337238989391      1.78277245212722
  C   -4.13604578288097     -0.54229038292460      2.57623680185476
  H   -3.75507019518884      1.41213521437800      3.38384797491425
  H   -1.54457368066679      1.65247515965008      2.31004634153573
  C   1.16688228432233     -1.33765713473712      3.47459901627497
  C   2.35804296211169     -2.03330891634242      4.13510889146767
  H   2.35197909301112     -3.11310604098210      3.92181309354821
  H   2.31736354836580     -1.89882936847508      5.22994421939269
  H   3.31089422612715     -1.62091975370954      3.76967879930142
  C   1.23406463866877      0.16308464597776      3.73870601874222
  H   2.16799526229522      0.58980765341723      3.34236444354809
  H   1.19075826990848      0.36576326482769      4.82365828121409
  H   0.38845546529459      0.67639909031078      3.26031656632446
  C   -0.13350017765699     -1.92362225624042      4.01538578087881
  H   -1.00849442386560     -1.44453741131008      3.55856497274969
  H   -0.18898323374675     -1.77841659021529      5.10905947013763
  H   -0.18716965613701     -3.00279634615358      3.80755795092369
  H   -1.98478540701602     -2.29514758887793      0.60885735711739
  H   -5.12334696435888     -0.62691092696954      3.03933566484846
  N   -4.42122011150166     -2.71673589944464      1.53697267385382
  H   -3.90221029054936     -3.53529008684425      1.24479671296931
  H   -5.10533440889483     -2.93501430065836      2.25052758442473
