81
Coordinates from ORCA-job gp_opt
  C   0.86478639569488     -1.39019000110663      2.74112480216515
  C   2.31073768998931     -1.37507361980723      2.26341081625792
  P   2.55089294084736      0.01770304709478      1.05559066909937
  H   2.54441211403939     -2.30928822189338      1.72604480784574
  H   3.01038283981141     -1.28318527996708      3.10839884052778
  P   -0.24124616929944     -1.38714237151538      1.25491770813713
  H   0.64398420970199     -0.47871863594465      3.31975083509246
  H   0.64740547214649     -2.25969982692041      3.38076501110595
  C   -0.13021329383850     -3.09823726800464      0.64312461723039
  C   -0.71021039079335     -4.17016799072729      1.33445569562675
  C   -0.55500316249042     -5.46990499187661      0.86107852984039
  C   0.18142386063411     -5.70849873058539     -0.30080328159525
  C   0.76149760252240     -4.64634228895518     -0.99139521921818
  C   0.60384171734222     -3.34246258519349     -0.52330188850933
  H   1.04653217295258     -2.49669932524333     -1.06008477616652
  H   -1.29518202158763     -3.98473410035785      2.23953999685679
  H   -1.01257554984668     -6.30288436367000      1.40000420214069
  H   0.29952293311540     -6.72985913843235     -0.67048696849891
  H   1.33497399503286     -4.82988184385725     -1.90269163622958
  C   2.85013054751893      1.46284349702992      2.13157256046176
  C   4.02005876909653      1.58068704791004      2.89242453472363
  C   4.19913700269842      2.67547548110359      3.73270142619316
  C   3.21403115082791      3.66146221735194      3.81556314665375
  C   2.05422522618032      3.55479158937610      3.05150737013126
  C   1.87144565678431      2.46034830451978      2.20672217939804
  H   0.97877872098630      2.38490824726537      1.57813422404962
  H   3.35882098735099      4.52296117128193      4.47199738005689
  H   1.28983192956040      4.33369323455252      3.09997955205481
  H   4.80221941095634      0.82028009770422      2.81301624531241
  H   5.11558075118998      2.76627285817016      4.32062064701444
  Pd  0.56185747965795      0.18560787334418     -0.16967640283760
  C   4.15346475453771     -0.32950999989362      0.26418233350374
  C   4.46975831277259      0.40507248393312     -0.88753664219988
  C   5.68265189603562      0.18980307341826     -1.53585405129453
  C   6.58390052190857     -0.75725513557642     -1.04953589244859
  C   6.26963155007010     -1.49381145012473      0.09132322166501
  C   5.05884773906601     -1.28184631694416      0.74933387008464
  H   3.73859378110425      1.12962862335455     -1.27000265067485
  H   5.92160948885894      0.76493970339772     -2.43373183505241
  H   7.53359030518884     -0.92508588521994     -1.56335580352804
  H   6.97041541230074     -2.23983064174278      0.47363251279034
  H   4.82929921739652     -1.86898996902196      1.64117241189963
  C   -1.93929658627265     -1.17168105151053      1.85653494670443
  C   -2.21392613867417     -0.27299395221821      2.89467122300225
  C   -3.53191822561818      0.03435653240631      3.22449626930701
  C   -4.58403020063628     -0.53452356220473      2.50852144468030
  C   -4.31649168459496     -1.42138842409465      1.46671815280941
  C   -3.00180329554449     -1.74480903197904      1.14548358224031
  H   -2.79986888505818     -2.42147723755286      0.31308967359367
  H   -1.40049071933922      0.20981009991349      3.44129933532571
  H   -3.73647089733698      0.73428965664400      4.03798270513284
  H   -5.61673136769940     -0.27712697412557      2.75494647279425
  H   -5.13433117202767     -1.84493140312234      0.88068779336410
  S   1.36306789607907      2.03630679572052     -1.37966840193917
  C   -1.28672604448680      0.20558575833838     -0.99312307126257
  C   -1.74698229584189     -0.77042718351244     -1.88930631215650
  C   -3.07159881746676     -0.79191554275189     -2.32442736113584
  C   -2.21148688638883      1.16084547589961     -0.54298118736690
  C   -3.53812685455171      1.14163391984658     -0.96029701463113
  C   -3.97525122295306      0.15946408992320     -1.85196787312739
  H   -3.40663161777382     -1.55487064477379     -3.03108203184069
  H   -1.06768643145777     -1.54176099009004     -2.26285486165077
  H   -4.24085376869929      1.89457270966691     -0.59700185799728
  C   0.92261113147559      1.99931326282027     -3.18015474524836
  C   1.88473313684282      2.99286616472193     -3.83331368035911
  H   1.68723026794806      3.05404106003855     -4.91731610198044
  H   2.93174499565770      2.68691086005137     -3.68723744616983
  H   1.76180776366971      3.99927767862903     -3.40528796958915
  C   1.15399376629696      0.60486510568593     -3.75271099975278
  H   2.19103122892998      0.27818181712417     -3.58236309387115
  H   0.95824802549579      0.59781473848140     -4.83945784428478
  H   0.48241713888656     -0.12529192322940     -3.28096619463434
  C   -0.51423566120258      2.45230829237259     -3.41997049109664
  H   -0.71399477966383      2.51672282071231     -4.50405309024278
  H   -0.68906307222507      3.44389725559901     -2.97711519565532
  H   -1.23601129623561      1.75311391459953     -2.98178332371183
  C   -5.41763409014445      0.08159140146783     -2.24268296515750
  H   -1.88654889641184      1.94508562998943      0.14518747633637
  F   -6.01757595409630      1.27594793497064     -2.20732467960617
  F   -6.11860283303548     -0.72053692773415     -1.41459969448560
  F   -5.58255350616771     -0.41655206394974     -3.47333237320262
