82
Coordinates from ORCA-job gp_opt
  C   -0.49932592482106      2.30590204397434      1.76764964135719
  C   0.95351603789352      1.94462561517025      2.05167593067182
  P   1.73376542188778      1.17056937301819      0.53793110452697
  H   1.01892990984353      1.21380181734200      2.87125323554960
  H   1.53872762471550      2.82564107163718      2.35428420982275
  P   -1.33343609856818      0.91182075008742      0.87925216669526
  H   -0.56877259372441      3.15875324412073      1.07265416890791
  H   -1.04540060708652      2.59518052336365      2.67989379121538
  C   -1.49624026973258     -0.41314632328171      2.12331787444993
  C   -1.60139570611182     -1.72991294394469      1.65220183547540
  C   -1.69601714590035     -2.78695503646844      2.55336177513819
  C   -1.67224453231728     -2.54435105925534      3.92684593366560
  C   -1.56039832457134     -1.23806779376308      4.40114313061702
  C   -1.47594692694928     -0.17466957281667      3.50338177033206
  H   -1.38495142840634      0.84309016264057      3.89037913782624
  H   -1.59748950171029     -1.91139667463767      0.57281871035859
  H   -1.77756194394595     -3.80915370244871      2.17702054756450
  H   -1.73660989553632     -3.37711286041261      4.63131640721418
  H   -1.53785806221533     -1.04392119032688      5.47606922949166
  C   2.79351847952855      2.47752739932195     -0.14730478891260
  C   3.84523769752142      3.01874629271837      0.60432403565203
  C   4.61936333528484      4.04971446768523      0.08000050671914
  C   4.34843033919350      4.54461994834172     -1.19682433870026
  C   3.30602655772445      4.00594638825901     -1.94837079575408
  C   2.52878268316228      2.97200824671159     -1.42838498024252
  H   1.72324448528278      2.52846556796449     -2.02018059250545
  H   4.95854065776647      5.35207384050664     -1.60886744281963
  H   3.09917684273088      4.38487542149361     -2.95165692182921
  H   4.06803844685341      2.62296659883866      1.59933631883993
  H   5.44062316849106      4.46642973012291      0.66782746274861
  Pd  0.08772178968632      0.26657975193628     -0.76465635851410
  C   2.83917768258430     -0.11852388096898      1.18626438855819
  C   2.36694398326910     -1.00759824687752      2.16021007227083
  C   3.14163943031750     -2.09859456242383      2.54618778917156
  C   4.38604260243598     -2.31644017082578      1.95614514399338
  C   4.85092985433753     -1.44362494506462      0.97345336681318
  C   4.07979209059300     -0.35163285252963      0.58156242031147
  H   1.37503921979810     -0.87734378205856      2.60162080101584
  H   2.76148949028070     -2.78920102318039      3.30231280682307
  H   4.99037451880786     -3.17615651985371      2.25500495555895
  H   5.81735415765275     -1.62019380598813      0.49562814833166
  H   4.42776251859423      0.30956538339849     -0.21370872958610
  C   -3.01560188559997      1.51730351633745      0.55007137619693
  C   -3.34791573246416      1.89524236915383     -0.75510289683956
  C   -4.61159687305211      2.41899803227140     -1.02324749702763
  C   -5.54444357786928      2.55909289488050      0.00298751225791
  C   -5.21923242949572      2.16843698772735      1.30259229699882
  C   -3.95869103799496      1.64485113468073      1.57692011395458
  H   -3.71333059979982      1.31934665845575      2.59131823030454
  H   -2.62242854682989      1.74133351302887     -1.55771811433861
  H   -4.87121049958474      2.70720354285493     -2.04448152757475
  H   -6.53619596769348      2.96433086150545     -0.21191603240066
  H   -5.95485512832890      2.26341602182170      2.10463648404156
  S   1.85259394203622     -0.25334596734118     -2.24509228596359
  C   -1.38558442259672     -0.67401119654122     -1.71352385050970
  C   1.87567456164724     -2.08758647827754     -2.50407874709667
  C   0.91241957229175     -2.46844149973696     -3.62288531727317
  H   0.94724490086150     -3.55786777807913     -3.80378502606720
  H   1.18040360825716     -1.95350661937581     -4.55759697324484
  H   -0.11545053698464     -2.18564860714478     -3.35723578496165
  C   3.31470969593980     -2.41189842373095     -2.90581503265696
  H   4.01411303617813     -2.15943973784441     -2.09445861898342
  H   3.61187437334421     -1.84939767296378     -3.80416350176128
  H   3.41146342788872     -3.48858770761683     -3.12847710549891
  C   1.52483528763894     -2.82300680195255     -1.21438767196114
  H   2.19730884014201     -2.52937451857656     -0.39486318431389
  H   1.61732809296667     -3.91333893139216     -1.36396124723287
  H   0.49053887799347     -2.60196660827311     -0.91196460823898
  C   -2.37620778352330     -1.24414525242824     -2.15878780777109
  C   -3.57383042990308     -1.91433257787691     -2.65741531638350
  C   -4.84851597257616     -1.53518787426440     -1.89569649139097
  H   -3.42864833581666     -3.00912826046780     -2.59962500678603
  H   -3.70553492680228     -1.69071604826759     -3.73056682319361
  C   -4.77257991666173     -1.82928578664031     -0.40542086424709
  H   -5.70335653374333     -2.07335273650196     -2.34246485142655
  H   -5.04690145966324     -0.45877511945091     -2.03848039099626
  C   -6.03458344663720     -1.45686718033604      0.35376432983030
  H   -3.91407514732861     -1.27796699049576      0.01113457712757
  H   -4.54488986649494     -2.90067705939806     -0.25691545455670
  H   -6.25532498455785     -0.38343494098269      0.24467486808740
  H   -5.93363217400166     -1.66483308664040      1.43032480162771
  H   -6.91055477712166     -2.01634894454625     -0.01376071255424
