122
XYZ file generated by orca_plot on BaseName=gp_opt
  Fe      7.847781     11.760679      5.897287
  P       6.891318     10.414577      2.779338
  P       4.451411     11.328422      5.681929
  O       2.645221     10.065640      3.737429
  C       8.027447     10.691712      4.190444
  C       9.217398     11.468383      4.420083
  H       9.633782     12.233912      3.775284
  C       9.770676     11.091572      5.674963
  H      10.650330     11.537768      6.136836
  C       8.951703     10.073562      6.235844
  H       9.088334      9.594654      7.204034
  C       7.887711      9.830133      5.328823
  H       7.071129      9.130676      5.466162
  C       5.919881     12.217286      6.324673
  C       6.681686     12.076200      7.531953
  H       6.512113     11.350816      8.322697
  C       7.753648     13.012627      7.514287
  H       8.519984     13.114112      8.281194
  C       7.667858     13.758281      6.308122
  H       8.353291     14.538749      5.981935
  C       6.551145     13.272109      5.576813
  H       6.246061     13.630909      4.598363
  C       6.905982     11.953080      1.627938
  C       6.899833     11.568365      0.147877
  C       5.613908     12.722967      1.903018
  C       7.889758      8.979993      1.957675
  C       7.884188      7.817181      2.957970
  C       3.151384     12.740358      5.735623
  C       1.726472     12.190201      5.824050
  C       3.264570     13.502200      4.414050
  C       3.998704     10.037183      7.014585
  C       5.165689      9.050545      7.115430
  C       3.707300     10.645100      8.388359
  C       4.387218      8.932760      1.951827
  C       3.988818      9.363890      0.681486
  C       4.325186      7.561328      2.236658
  C       3.907479      6.645331      1.278013
  C       3.536604      7.090517      0.000168
  C       3.566020      8.461953     -0.287995
  H       3.973296     10.427464      0.438299
  H       3.247735      8.814456     -1.270878
  H       4.594961      7.193438      3.229920
  H       3.859392      5.579788      1.511815
  C       3.106453      6.154668     -0.992014
  C       1.796265      9.963767      2.728118
  Pd      4.688860     10.160563      3.488834
  C       1.026406      8.804549      2.556526
  C       1.621209     11.019199      1.809010
  C       0.744798     10.914424      0.734788
  C       0.001760      9.731477      0.591124
  C       0.120372      8.674738      1.499137
  H       1.173155      7.998788      3.278710
  H       2.225558     11.913777      1.957314
  N       2.751066      5.393789     -1.792925
  H      -0.686302      9.641174     -0.248850
  C       0.586582     12.034340     -0.298115
  C       1.456612     13.249232      0.029885
  C      -0.878185     12.491000     -0.338996
  C       1.000305     11.505461     -1.678917
  C      -0.730309      7.403751      1.391791
  C      -1.600940      7.393439      0.134586
  C      -1.649043      7.332123      2.620899
  C       0.170678      6.162651      1.354914
  H      -2.302224      8.216989      2.671630
  H      -1.067942      7.292760      3.554265
  H      -2.286794      6.433956      2.577987
  H       0.807823      6.166024      0.459065
  H      -0.440915      5.246370      1.330667
  H       0.827653      6.105842      2.234881
  H      -2.315603      8.230432      0.125493
  H      -2.182182      6.459472      0.090508
  H      -0.991128      7.449205     -0.779994
  H       1.200954     13.678154      1.010620
  H       1.309077     14.032962     -0.729308
  H       2.527733     12.993657      0.039194
  H       2.053424     11.182633     -1.672040
  H       0.888264     12.287913     -2.447356
  H       0.390594     10.642174     -1.982959
  H      -1.194931     12.868331      0.645544
  H      -1.553304     11.667286     -0.612908
  H      -1.014355     13.298055     -1.077481
  H       2.771592     11.219417      8.387322
  H       4.504687     11.301635      8.759310
  H       3.581517      9.826824      9.116947
  H       5.311101      8.535451      6.153416
  H       4.913066      8.282633      7.864363
  H       6.113839      9.514061      7.412713
  C       2.786114      9.205730      6.575298
  H       1.848135      9.768966      6.605284
  H       2.690247      8.358013      7.273947
  H       2.893204      8.827062      5.551024
  H       1.553253     11.420658      5.060801
  H       1.025437     13.023574      5.652939
  H       1.500244     11.778043      6.816280
  H       4.228454     14.016733      4.305391
  H       2.481329     14.277049      4.379679
  H       3.116948     12.828441      3.560725
  C       3.402943     13.713867      6.889374
  H       3.356581     13.228998      7.872618
  H       2.620080     14.490243      6.865734
  H       4.374805     14.219471      6.806063
  C       7.317987      8.438775      0.642096
  C       9.334453      9.424898      1.712951
  H       6.863381      7.567186      3.280847
  H       8.497880      8.018896      3.844742
  H       8.301948      6.927174      2.461315
  H       6.302881      8.047207      0.751389
  H       7.962149      7.600826      0.329399
  H       7.323794      9.167130     -0.172689
  H       9.836739      9.749231      2.633984
  H       9.402817     10.235701      0.973303
  H       9.902227      8.570670      1.309143
  H       5.514929     12.993904      2.958052
  H       4.723157     12.136118      1.637633
  H       5.605905     13.651402      1.308043
  H       7.855729     11.141986     -0.182549
  H       6.730937     12.485885     -0.439269
  H       6.095419     10.864541     -0.099375
  C       8.085772     12.888778      1.880778
  H       9.054955     12.402090      1.704231
  H       8.071296     13.295843      2.900234
  H       8.011934     13.738257      1.182097
