10
Coordinates from ORCA-job gp_opt
  Pd  -3.13994675897011      1.43945503795901      0.51788046486770
  Cl  -3.13096694715631     -0.68758805561742      1.15393873455106
  C   -1.30569806364323      1.55429409973227      0.08588677136952
  S   -0.79428138004684      1.26308478676603     -1.53997116873902
  C   -0.27614896328770      1.99588690569386      0.88561360081958
  C   0.78912504782512      1.82817732259433     -1.18120654603230
  C   0.92097934292731      2.18008030099106      0.13884217147262
  H   -0.37243047303625      2.17846119100637      1.95625399979609
  H   1.54014691190436      1.88510785408759     -1.96871357557293
  H   1.85030128348365      2.55907055678692      0.56682554746759
