16
Coordinates from ORCA-job gp_opt
  Pd  -3.06478232739087      1.52818492718780      0.55533857054088
  Cl  -3.01729815515752     -0.60914465190269      1.19582438796923
  C   -1.19612767230108      1.68882325390702      0.22747400172316
  C   -0.72238766625047      1.49748724004498     -1.06953129384628
  C   0.58489221724326      1.88147386806503     -1.36973599876148
  C   -0.37607538399000      2.18102911443033      1.24495883109590
  C   0.92613044043153      2.56152853176176      0.92954380033218
  C   1.40389797419291      2.41376710975178     -0.37500299104227
  H   0.97088234166925      1.75851693765813     -2.38315901956446
  C   2.82950742095599      2.78905421655687     -0.67735507656357
  H   -1.35664732619437      1.05888502796507     -1.84274458584110
  H   -0.74248715670677      2.27355549296822      2.26952291446831
  H   1.57616523920020      2.96960503414724      1.70685871664543
  F   3.05815256433289      2.86646365456247     -1.98987182890072
  F   3.14458680252456      3.97315207457906     -0.14201318824957
  F   3.68725068744048      1.89394816831690     -0.17561724000565
