21
Coordinates from ORCA-job gp_opt
  C   -2.16774247098068      0.82393044995527     -0.08165668636306
  C   -2.16446858182389     -0.56373636304489     -0.13972227094917
  C   -0.95131029194232     -1.24588758478055     -0.23049849674526
  C   -0.96053644852627      1.56266744889614     -0.07756397921310
  C   0.25296216390579      0.83715838858488     -0.10295999322702
  C   0.25789057769420     -0.55363351133297     -0.15106168635097
  H   1.21317620093924     -1.08554187469082     -0.13147818691951
  H   -3.12783198800818      1.33640048691959     -0.03016041292617
  H   -3.10863600049713     -1.11123081858456     -0.11921751315189
  N   -0.96874429193515      2.93501605898187     -0.02869880022139
  H   1.20953566223218      1.35738152529661     -0.06462580751678
  Pd  -0.87111582744831     -3.08923959426645     -0.67998745761694
  Cl  -1.71953238508289     -3.94927539745890      1.20339888069997
  C   -2.21620533043917      3.64232148730574      0.08585586801183
  C   0.27232814352197      3.65850744751309      0.04027210640326
  H   -2.89181794939704      3.42181094210937     -0.75916765096819
  H   -2.02413753153322      4.72208102931722      0.08174311096604
  H   -2.75810071692613      3.39948069837835      1.01906698867180
  H   0.84680780299657      3.43182506732647      0.95810715064736
  H   0.06619052984879      4.73568619729821      0.03234187821524
  H   0.92310873340133      3.43762791627604     -0.82399704144604
