26
Coordinates from ORCA-job gp_opt
  C   -2.19696458438504      1.19252513572528     -0.01428716179245
  C   -2.43365010991250     -0.17367080923310      0.06035772907942
  C   -1.34608303829940     -1.05459976899671      0.07687562278508
  C   -0.88445668934131      1.69098258920572     -0.02680506701643
  C   0.19457802197809      0.79958744782868      0.03852027886765
  C   -0.03918739909573     -0.57578351113784      0.11380571652884
  H   0.80589961544844     -1.26221921325580      0.20073366210396
  H   -3.02155188050922      1.90761693083928     -0.04420323177370
  H   -3.46007056077634     -0.54528576083271      0.10441718618887
  O   -0.76112287845708      3.02896556668562     -0.08256292801584
  H   1.22252877702204      1.16243794946029      0.04846773645976
  Pd  -1.66502294493885     -2.91309292429706     -0.17295515986271
  Cl  -1.66832649569744     -3.50738596200499      1.98108087620648
  C   0.52078834346173      3.61182508310973     -0.03092785471245
  C   0.36252079645958      5.11533515822312     -0.04312556178946
  H   1.12585393507926      3.27761059434516     -0.89563068821246
  H   1.04880357056441      3.28688359526453      0.88571092074616
  C   1.69436937889861      5.85022143397985      0.00952235629172
  H   -0.26736601702281      5.40727561705211      0.81408401087636
  H   -0.19636505760829      5.40372235010428     -0.94942891540464
  C   1.54048427069409      7.36265321064737      0.01803615372659
  H   2.31524962937672      5.54748864170312     -0.85235467855068
  H   2.25344861060880      5.53220728505464      0.90744493618365
  H   1.01706924896721      7.71644423997733     -0.88441161171624
  H   2.51739211399443      7.86750185115295      0.05589308294766
  H   0.95752134349061      7.69970326939910      0.88987258985485
