6
Coordinates from ORCA-job gp_opt
  C   -1.13555592504685      0.04512594544545      0.00783257681671
  Pd  -1.46960048169321     -1.87768249079376     -0.07092830369613
  Cl  0.21114540718244     -2.40444309652486      1.29515661038984
  H   -1.07034632748793      0.34140915128148     -1.05377185082087
  H   -0.21295725501302      0.28637186166200      0.54890302931541
  H   -2.01972541794142      0.45965862892969      0.52060793799504
