13
Coordinates from ORCA-job gp_opt
  C   -2.79874532445131     -0.55779057306298      0.04401112805013
  C   -1.52017996493001     -0.20033801676110      0.12822779439283
  C   -3.96963191845059      0.36943130720963     -0.02258200677942
  H   -3.65273316875919      1.42010347262660      0.01877328547490
  H   -4.66388018272631      0.18266819597539      0.81424134993890
  H   -4.53680542143813      0.21442753748214     -0.95610885518626
  C   -3.08339778430352     -2.04602263385109      0.01091868131838
  H   -2.18963806706858     -2.73834486818118      0.04919067100029
  H   -3.60201165258240     -2.33633827583634     -0.91666981667612
  H   -3.70064491338366     -2.35754128672405      0.86852614593758
  Pd  -0.49740455976808     -1.81479385558529      0.17961822412291
  H   -1.05016337785125      0.78336126126109      0.16976489525768
  Cl  1.54003633571311     -0.91983226455277      0.33297850314805
