15
Coordinates from ORCA-job gp_opt
  C   -4.71491785392718      0.77319187195895     -0.11284956482666
  C   -4.63699587542240     -0.61949040169502      0.08716775754770
  C   -3.38722155412325     -1.21809591023425      0.21412133818881
  C   -2.19518266345335     -0.49843510039992      0.23657330044025
  C   -2.28826618455352      0.88183643557648      0.04415018884663
  C   -3.51627847677955      1.50946590495662     -0.13101917724788
  N   -5.92948432975928      1.38851009276504     -0.31528045574820
  H   -5.55524621704353     -1.21142679845701      0.14527173720451
  H   -1.23432267989936     -0.98795562513737      0.39805490540702
  H   -1.37575206449916      1.48367322872789      0.04066056606925
  Pd  -3.36528901312538     -3.11322048808749      0.06038725634046
  Cl  -2.83514700128580     -3.61100060802770      2.17643417633257
  H   -3.55789071083992      2.59265813094085     -0.27181711562284
  H   -5.96815029854278      2.38499836879473     -0.14871267593468
  H   -6.75294507674544      0.89298089831820     -0.00166223699694
