16
Coordinates from ORCA-job gp_opt
  C   -4.67434143643200      0.78088555213967     -0.07153255397242
  C   -4.62217712452308     -0.60184008611298      0.17014757247489
  C   -3.38682070428766     -1.23027426592174      0.30321484945953
  C   -2.18466745619936     -0.52398948964353      0.29612860580896
  C   -2.24337857894211      0.84883776890430      0.06161852422833
  C   -3.46945202424662      1.48833161118902     -0.12444513538027
  C   -5.99790688109346      1.46581003380816     -0.25209245359691
  H   -5.55280877025719     -1.17143797714084      0.25644443973488
  H   -1.23192166073950     -1.02842888149186      0.46527279520493
  H   -1.31779039302680      1.42936324190663      0.03244529005118
  Pd  -3.41243805888958     -3.12993632795270      0.20835324198578
  Cl  -2.78547500147868     -3.56418748392515      2.30988673440759
  H   -3.49304892297699      2.56741155104889     -0.29763117747122
  H   -5.87790096076714      2.55439858066063     -0.33897534883308
  H   -6.66924055249610      1.26395388012238      0.59683022523295
  H   -6.50796147364364      1.10970229240912     -1.16141560933512
