17
Coordinates from ORCA-job gp_opt
  C   -3.10837831803893     -1.34965220185373     -0.27310477959745
  C   -1.91108563691043     -1.13472663414777     -0.38233154026779
  Pd  -0.08750147242998     -0.78066965046234     -0.44533281610750
  Cl  -0.03423860360813     -0.12241069597149      1.66065308995385
  C   -4.54224399848664     -1.57504805979282     -0.17683815620701
  C   -5.31548378381203     -0.32309698404226      0.24485393182099
  H   -4.72607170222903     -2.38944792496512      0.54657766909691
  H   -4.92249101967459     -1.94263111942474     -1.14653204924212
  C   -6.80603138515908     -0.57766683427284      0.41199357443775
  H   -5.14873978879947      0.47052620960678     -0.50318931420226
  H   -4.89118275389586      0.05725247179841      1.18932486458648
  C   -7.58006246102111      0.66567795194371      0.81925220593415
  H   -6.95519675109910     -1.37166413512466      1.16515771326515
  H   -7.21546142070497     -0.97985721653522     -0.53181608960842
  H   -7.20801006153494      1.07163726341493      1.77357499154892
  H   -8.65254794407977      0.45331632108428      0.94319369758140
  H   -7.48235289851498      1.46183123874469      0.06391300700796
