13
Coordinates from ORCA-job gp_opt
  C   -4.77235922598671      0.78857097301363     -0.11024968015647
  C   -4.76340197222563     -0.57857800179538      0.16932184006350
  C   -3.55351359270205     -1.22084506321773      0.42055034919707
  C   -2.34333443671649     -0.53583642072555      0.41900577477706
  C   -2.35674363477982      0.83101731548985      0.14363378471972
  C   -3.56247162703070      1.48182584235870     -0.12025887152629
  Cl  -3.56035300257336      3.17853525602048     -0.46282908048194
  H   -5.70689161192671      1.31411853278599     -0.31289800091834
  H   -5.71955506085986     -1.12147767741698      0.18892968773441
  H   -1.40928696423432     -1.05729611785931      0.62683240690695
  H   -1.42453459566057      1.39877367138947      0.13082558159387
  Pd  -3.91902738333581     -3.07361720588873      0.66560199913812
  Cl  -1.87852689196792     -3.74191110415444      1.28862420895234
