13
Coordinates from ORCA-job gp_opt
  C   -2.26132272322705      0.92658859410929      0.04132505500027
  C   -2.17353871341453     -0.46546075364765     -0.01530354801363
  C   -0.90696390722268     -1.04798709831566     -0.03641885599256
  C   -1.10698047724194      1.71070172842421      0.04528958234659
  C   0.14873216763216      1.10966896820858     -0.01886983887761
  C   0.25943464445702     -0.28229266140076     -0.08292559388131
  H   1.24419480406236     -0.74999844623197     -0.17179542469985
  H   -3.24517775537677      1.40137124710593      0.07540895808451
  H   -3.07291122975605     -1.08295548268599     -0.03870354479568
  H   -1.18781334844848      2.79964876058486      0.08166394482297
  H   1.05321194262846      1.72282567624679     -0.03843571720852
  Pd  -0.64009373491825     -2.90491877141179      0.27534694429220
  Cl  -1.64407166917422     -3.68114176098585     -1.56514196107738
