16
Coordinates from ORCA-job gp_opt
  Pd  -3.14143720620396      1.39262867261107      0.54544388249442
  Cl  -3.24979925767858     -0.73609891414901      1.21875993025580
  C   -1.27343621058044      1.36142833838170      0.17581632689629
  C   -0.83266994695173      1.00200740449971     -1.09682479542500
  C   -0.39195191627398      1.83066515120628      1.14744672285430
  C   0.94687297811085      2.01560529986594      0.80151179850908
  C   0.51024480800193      1.19504570109287     -1.41648249564454
  C   1.41870717956467      1.70273310087262     -0.47855563004599
  C   2.86149041461268      1.90228867958118     -0.83990923668092
  H   -1.51878457665610      0.57036251469234     -1.82879533234335
  H   0.86272999597640      0.92258429904608     -2.41540093579517
  H   -0.73316307130630      2.04263272963081      2.16343302797922
  H   1.64365889318165      2.39150637094443      1.55596167645515
  H   3.22101692349287      1.10777174320169     -1.51005515768495
  H   3.50286934956101      1.91388251399845      0.05254134971923
  H   3.00672164314903      2.86160639452381     -1.36411113154358
